*SOIL-PLANT-ATMOSPHERE MODULE OUTPUT FILE

*DSSAT Cropping System Model Ver. 4.8.2.006 -  APR 10, 2025 22:06:00

*RUN   1        : Control - 350 ppm         CRGRO048 AZMC8901    1
 MODEL          : CRGRO048 - Cotton
 EXPERIMENT     : AZMC8901 CO 1989 FACE EXPERIMENT
 DATA PATH      :
 TREATMENT  1   : Control - 350 ppm         CRGRO048
  
@YEAR DOY   DAS   SRAA  TMAXA  TMINA    REFA    EOAA    EOPA    EOSA    ETAA    EPAA    ESAA    EFAA    EMAA    EOAC    ETAC    EPAC    ESAC    EFAC    EMAC    KCAA    KBSA    KEAA
 1989 100     1  27.94  36.30  12.60 -99.000   7.819   0.000   7.819   5.809   0.000   5.809   0.000   0.000    7.82    5.81    0.00    5.81    0.00    0.00 -99.000 -99.000 -99.000 
 1989 101     2  25.12  34.30  13.10 -99.000   6.580   0.000   6.580   6.425   0.000   6.425   0.000   0.000   14.40   12.23    0.00   12.23    0.00    0.00 -99.000 -99.000 -99.000 
 1989 102     3  27.17  32.70  14.10 -99.000   6.774   0.000   6.774   1.163   0.000   1.163   0.000   0.000   21.17   13.40    0.00   13.40    0.00    0.00 -99.000 -99.000 -99.000 
 1989 103     4  27.13  32.20  15.00 -99.000   6.743   0.000   6.743   0.509   0.000   0.509   0.000   0.000   27.92   13.91    0.00   13.91    0.00    0.00 -99.000 -99.000 -99.000 
 1989 104     5  27.73  33.80  12.60 -99.000   6.890   0.000   6.890   0.457   0.000   0.457   0.000   0.000   34.81   14.36    0.00   14.36    0.00    0.00 -99.000 -99.000 -99.000 
 1989 105     6  24.07  33.70  13.30 -99.000   6.003   0.000   6.003   0.416   0.000   0.416   0.000   0.000   40.81   14.78    0.00   14.78    0.00    0.00 -99.000 -99.000 -99.000 
 1989 106     7  27.96  35.00  13.90 -99.000   7.102   0.000   7.102   0.383   0.000   0.383   0.000   0.000   47.91   15.16    0.00   15.16    0.00    0.00 -99.000 -99.000 -99.000 
 1989 107     8  27.23  35.10  12.10 -99.000   6.864   0.000   6.864   0.355   0.000   0.355   0.000   0.000   54.78   15.52    0.00   15.52    0.00    0.00 -99.000 -99.000 -99.000 
 1989 108     9  28.75  36.80  12.20 -99.000   7.954   0.000   7.954   0.331   0.000   0.331   0.000   0.000   62.73   15.85    0.00   15.85    0.00    0.00 -99.000 -99.000 -99.000 
 1989 109    10  27.86  38.80  12.90 -99.000   8.576   0.000   8.576   0.311   0.000   0.311   0.000   0.000   71.31   16.16    0.00   16.16    0.00    0.00 -99.000 -99.000 -99.000 
 1989 110    11  26.77  40.40  13.70 -99.000   8.945   0.000   8.945   0.294   0.000   0.294   0.000   0.000   80.25   16.45    0.00   16.45    0.00    0.00 -99.000 -99.000 -99.000 
 1989 111    12  25.01  38.80  17.50 -99.000   7.943   0.000   7.943   0.279   0.000   0.279   0.000   0.000   88.20   16.73    0.00   16.73    0.00    0.00 -99.000 -99.000 -99.000 
 1989 112    13  22.78  33.70  15.70 -99.000   5.776   0.000   5.776   0.265   0.000   0.265   0.000   0.000   93.97   17.00    0.00   17.00    0.00    0.00 -99.000 -99.000 -99.000 
 1989 113    14  29.70  32.20  11.40 -99.000   7.174   0.000   7.174   0.253   0.000   0.253   0.000   0.000  101.15   17.25    0.00   17.25    0.00    0.00 -99.000 -99.000 -99.000 
 1989 114    15  27.94  27.80  11.50 -99.000   6.417   0.000   6.417   0.242   0.000   0.242   0.000   0.000  107.56   17.49    0.00   17.49    0.00    0.00 -99.000 -99.000 -99.000 
 1989 115    16  28.87  26.40   8.30 -99.000   6.876   0.000   6.876   6.876   0.000   6.876   0.000   0.000  114.44   24.37    0.00   24.37    0.00    0.00 -99.000 -99.000 -99.000 
 1989 116    17  30.29  21.80  10.00 -99.000   6.573   0.000   6.573   4.971   0.000   4.971   0.000   0.000  121.01   29.34    0.00   29.34    0.00    0.00 -99.000 -99.000 -99.000 
 1989 117    18  30.04  26.30   5.50 -99.000   6.457   0.000   6.457   0.493   0.000   0.493   0.000   0.000  127.47   29.83    0.00   29.83    0.00    0.00 -99.000 -99.000 -99.000 
 1989 118    19  29.99  28.70   7.20 -99.000   6.737   0.035   6.714   0.592   0.035   0.557   0.000   0.000  134.20   30.42    0.03   30.39    0.00    0.00 -99.000 -99.000 -99.000 
 1989 119    20  29.82  30.40   9.60 -99.000   7.526   0.027   7.500   7.526   0.027   7.500   0.000   0.000  141.73   37.95    0.06   37.89    0.00    0.00 -99.000 -99.000 -99.000 
 1989 120    21  28.89  32.70  12.10 -99.000   7.239   0.042   7.212   4.391   0.042   4.348   0.000   0.000  148.97   42.34    0.10   42.24    0.00    0.00 -99.000 -99.000 -99.000 
 1989 121    22  28.67  34.70  13.50 -99.000   7.240   0.047   7.210   0.570   0.047   0.523   0.000   0.000  156.21   42.91    0.15   42.76    0.00    0.00 -99.000 -99.000 -99.000 
 1989 122    23  28.73  35.30  13.10 -99.000   7.974   0.038   7.936   7.973   0.038   7.936   0.000   0.000  164.18   50.89    0.19   50.70    0.00    0.00 -99.000 -99.000 -99.000 
 1989 123    24  30.37  36.90  16.60 -99.000   8.910   0.073   8.862   4.007   0.073   3.935   0.000   0.000  173.09   54.89    0.26   54.63    0.00    0.00 -99.000 -99.000 -99.000 
 1989 124    25  28.79  37.70  14.20 -99.000   8.469   0.079   8.417   0.620   0.079   0.540   0.000   0.000  181.56   55.51    0.34   55.17    0.00    0.00 -99.000 -99.000 -99.000 
 1989 125    26  29.70  39.80  16.80 -99.000   9.860   0.105   9.792   0.662   0.105   0.557   0.000   0.000  191.42   56.17    0.45   55.73    0.00    0.00 -99.000 -99.000 -99.000 
 1989 126    27  23.04  37.90  16.60 -99.000   7.513   0.060   7.453   7.513   0.060   7.453   0.000   0.000  198.94   63.69    0.51   63.18    0.00    0.00 -99.000 -99.000 -99.000 
 1989 127    28  30.55  40.80  13.80 -99.000  10.668   0.154  10.567   4.545   0.153   4.391   0.000   0.000  209.60   68.23    0.66   67.57    0.00    0.00 -99.000 -99.000 -99.000 
 1989 128    29  30.12  42.60  17.70 -99.000  11.415   0.186  11.293   0.707   0.186   0.521   0.000   0.000  221.02   68.94    0.84   68.09    0.00    0.00 -99.000 -99.000 -99.000 
 1989 129    30  25.85  38.70  21.90 -99.000   8.415   0.157   8.311   0.715   0.157   0.557   0.000   0.000  229.43   69.65    1.00   68.65    0.00    0.00 -99.000 -99.000 -99.000 
 1989 130    31  27.01  30.40  14.80 -99.000   7.074   0.104   6.969   7.073   0.104   6.969   0.000   0.000  236.51   76.73    1.11   75.62    0.00    0.00 -99.000 -99.000 -99.000 
 1989 131    32  27.14  24.10  12.10 -99.000   6.151   0.153   6.049   5.024   0.153   4.871   0.000   0.000  242.66   81.75    1.26   80.49    0.00    0.00 -99.000 -99.000 -99.000 
 1989 132    33  27.16  26.90   9.10 -99.000   6.355   0.111   6.244   6.339   0.096   6.244   0.000   0.000  249.01   88.09    1.35   86.74    0.00    0.00 -99.000 -99.000 -99.000 
 1989 133    34  27.71  29.70  11.50 -99.000   6.582   0.184   6.460   2.597   0.184   2.412   0.000   0.000  255.59   90.69    1.54   89.15    0.00    0.00 -99.000 -99.000 -99.000 
 1989 134    35  29.78  29.30  11.20 -99.000   6.941   0.209   6.803   0.766   0.209   0.557   0.000   0.000  262.54   91.45    1.75   89.70    0.00    0.00 -99.000 -99.000 -99.000 
 1989 135    36  24.29  26.60  13.50 -99.000   5.583   0.179   5.465   0.736   0.179   0.557   0.000   0.000  268.12   92.19    1.93   90.26    0.00    0.00 -99.000 -99.000 -99.000 
 1989 136    37  18.57  23.20  12.60 -99.000   4.064   0.138   3.973   0.695   0.138   0.557   0.000   0.000  272.18   92.88    2.06   90.82    0.00    0.00 -99.000 -99.000 -99.000 
 1989 137    38  30.24  29.90  10.30 -99.000   7.046   0.249   6.880   0.806   0.249   0.557   0.000   0.000  279.23   93.69    2.31   91.38    0.00    0.00 -99.000 -99.000 -99.000 
 1989 138    39  30.79  35.50  15.60 -99.000   8.121   0.302   7.920   0.818   0.302   0.516   0.000   0.000  287.35   94.51    2.62   91.89    0.00    0.00 -99.000 -99.000 -99.000 
 1989 139    40  31.51  36.70  15.30 -99.000   8.842   0.351   8.608   0.812   0.351   0.461   0.000   0.000  296.19   95.32    2.97   92.35    0.00    0.00 -99.000 -99.000 -99.000 
 1989 140    41  31.89  37.70  14.00 -99.000  10.056   0.281   9.773  10.035   0.262   9.773   0.000   0.000  306.25  105.36    3.23  102.13    0.00    0.00 -99.000 -99.000 -99.000 
 1989 141    42  29.20  38.30  16.60 -99.000   9.058   0.402   8.790   2.450   0.402   2.048   0.000   0.000  315.31  107.81    3.63  104.17    0.00    0.00 -99.000 -99.000 -99.000 
 1989 142    43  28.69  38.60  15.70 -99.000   8.891   0.441   8.596   0.999   0.441   0.557   0.000   0.000  324.20  108.80    4.07  104.73    0.00    0.00 -99.000 -99.000 -99.000 
 1989 143    44  32.42  39.50  15.40 -99.000  10.471   0.577  10.084   1.134   0.577   0.557   0.000   0.000  334.67  109.94    4.65  105.29    0.00    0.00 -99.000 -99.000 -99.000 
 1989 144    45  32.57  36.00  21.40 -99.000   9.172   0.552   8.800   1.110   0.552   0.557   0.000   0.000  343.84  111.05    5.20  105.85    0.00    0.00 -99.000 -99.000 -99.000 
 1989 145    46  32.23  34.80  13.50 -99.000   8.108   0.539   7.744   1.096   0.539   0.557   0.000   0.000  351.95  112.14    5.74  106.40    0.00    0.00 -99.000 -99.000 -99.000 
 1989 146    47  32.23  36.70  15.00 -99.000   9.669   0.463   9.204   9.644   0.441   9.204   0.000   0.000  361.62  121.79    6.18  115.61    0.00    0.00 -99.000 -99.000 -99.000 
 1989 147    48  31.85  38.20  15.90 -99.000   9.787   0.742   9.283   3.354   0.742   2.612   0.000   0.000  371.40  125.14    6.92  118.22    0.00    0.00 -99.000 -99.000 -99.000 
 1989 148    49  31.52  37.90  16.90 -99.000   9.483   0.798   8.939   1.355   0.798   0.557   0.000   0.000  380.89  126.50    7.72  118.78    0.00    0.00 -99.000 -99.000 -99.000 
 1989 149    50  31.23  36.00  17.60 -99.000   8.544   0.800   7.997   1.357   0.800   0.557   0.000   0.000  389.43  127.85    8.52  119.33    0.00    0.00 -99.000 -99.000 -99.000 
 1989 150    51  31.86  30.90  13.10 -99.000   7.628   0.794   7.081   1.351   0.794   0.557   0.000   0.000  397.06  129.21    9.31  119.89    0.00    0.00 -99.000 -99.000 -99.000 
 1989 151    52  32.64  34.20  10.40 -99.000   7.942   0.893   7.325   1.450   0.893   0.557   0.000   0.000  405.00  130.66   10.21  120.45    0.00    0.00 -99.000 -99.000 -99.000 
 1989 152    53  32.46  36.10  14.40 -99.000   8.708   1.042   7.984   1.521   1.042   0.479   0.000   0.000  413.71  132.18   11.25  120.93    0.00    0.00 -99.000 -99.000 -99.000 
 1989 153    54  32.62  35.60  13.90 -99.000   8.475   1.104   7.704   1.522   1.104   0.418   0.000   0.000  422.18  133.70   12.35  121.34    0.00    0.00 -99.000 -99.000 -99.000 
 1989 154    55  31.83  35.30  16.70 -99.000   8.287   1.169   7.465   1.537   1.169   0.368   0.000   0.000  430.47  135.24   13.52  121.71    0.00    0.00 -99.000 -99.000 -99.000 
 1989 155    56  31.39  36.70  16.00 -99.000   8.760   1.352   7.802   1.677   1.352   0.325   0.000   0.000  439.23  136.91   14.87  122.04    0.00    0.00 -99.000 -99.000 -99.000 
 1989 156    57  32.17  36.70  17.60 -99.000   9.065   1.523   7.978   1.812   1.523   0.289   0.000   0.000  448.30  138.72   16.40  122.33    0.00    0.00 -99.000 -99.000 -99.000 
 1989 157    58  32.30  35.40  15.70 -99.000   8.906   1.171   7.731   8.902   1.171   7.731   0.000   0.000  457.20  147.63   17.57  130.06    0.00    0.00 -99.000 -99.000 -99.000 
 1989 158    59  32.10  37.70  16.00 -99.000   9.577   1.894   8.201   5.958   1.894   4.064   0.000   0.000  466.78  153.58   19.46  134.12    0.00    0.00 -99.000 -99.000 -99.000 
 1989 159    60  32.08  36.30  16.30 -99.000   8.750   1.865   7.382   2.401   1.865   0.535   0.000   0.000  475.53  155.98   21.33  134.66    0.00    0.00 -99.000 -99.000 -99.000 
 1989 160    61  32.56  37.40  16.70 -99.000   9.421   2.160   7.821   2.717   2.160   0.557   0.000   0.000  484.95  158.70   23.49  135.21    0.00    0.00 -99.000 -99.000 -99.000 
 1989 161    62  31.82  37.10  17.30 -99.000   9.091   2.236   7.417   2.793   2.236   0.557   0.000   0.000  494.04  161.50   25.72  135.77    0.00    0.00 -99.000 -99.000 -99.000 
 1989 162    63  32.25  38.10  17.70 -99.000   9.704   2.561   7.766   3.053   2.561   0.492   0.000   0.000  503.74  164.55   28.28  136.26    0.00    0.00 -99.000 -99.000 -99.000 
 1989 163    64  31.91  37.40  17.70 -99.000   9.250   2.609   7.252   3.011   2.609   0.402   0.000   0.000  513.00  167.56   30.89  136.67    0.00    0.00 -99.000 -99.000 -99.000 
 1989 164    65  29.10  40.90  20.00 -99.000  10.667   2.479   8.180  10.658   2.479   8.180   0.000   0.000  523.66  178.22   33.37  144.84    0.00    0.00 -99.000 -99.000 -99.000 
 1989 165    66  31.26  41.90  21.60 -99.000  11.628   3.733   8.693   7.287   3.733   3.554   0.000   0.000  535.29  185.50   37.11  148.40    0.00    0.00 -99.000 -99.000 -99.000 
 1989 166    67  31.04  42.20  19.90 -99.000  11.413   3.895   8.306   4.448   3.895   0.553   0.000   0.000  546.70  189.95   41.00  148.95    0.00    0.00 -99.000 -99.000 -99.000 
 1989 167    68  31.05  42.10  20.10 -99.000  11.363   4.105   8.042   4.662   4.105   0.557   0.000   0.000  558.07  194.61   45.11  149.51    0.00    0.00 -99.000 -99.000 -99.000 
 1989 168    69  31.83  42.90  21.20 -99.000  12.125   4.628   8.326   5.150   4.628   0.523   0.000   0.000  570.19  199.76   49.73  150.03    0.00    0.00 -99.000 -99.000 -99.000 
 1989 169    70  32.31  43.80  19.30 -99.000  12.608   5.068   8.385   5.458   5.068   0.390   0.000   0.000  582.80  205.22   54.80  150.42    0.00    0.00 -99.000 -99.000 -99.000 
 1989 170    71  17.59  41.60  22.10 -99.000   6.342   2.669   4.083   2.961   2.669   0.291   0.000   0.000  589.14  208.18   57.47  150.71    0.00    0.00 -99.000 -99.000 -99.000 
 1989 171    72  27.46  42.30  21.10 -99.000  10.124   4.517   6.225   4.730   4.517   0.213   0.000   0.000  599.26  212.91   61.99  150.93    0.00    0.00 -99.000 -99.000 -99.000 
 1989 172    73  30.51  41.40  24.10 -99.000  10.998   5.140   6.558   5.320   5.140   0.181   0.000   0.000  610.26  218.23   67.13  151.11    0.00    0.00 -99.000 -99.000 -99.000 
 1989 173    74  32.41  39.30  17.60 -99.000  10.145   4.961   5.886   5.110   4.961   0.150   0.000   0.000  620.41  223.34   72.09  151.26    0.00    0.00 -99.000 -99.000 -99.000 
 1989 174    75  32.38  40.20  18.50 -99.000  10.624   5.389   6.011   5.518   5.389   0.129   0.000   0.000  631.03  228.86   77.48  151.39    0.00    0.00 -99.000 -99.000 -99.000 
 1989 175    76  31.75  39.00  18.80 -99.000   9.845   5.185   5.424   5.300   5.185   0.114   0.000   0.000  640.88  234.16   82.66  151.50    0.00    0.00 -99.000 -99.000 -99.000 
 1989 176    77  31.70  38.00  18.00 -99.000   9.293   5.072   4.979   5.173   5.072   0.101   0.000   0.000  650.17  239.33   87.73  151.60    0.00    0.00 -99.000 -99.000 -99.000 
 1989 177    78  31.63  39.80  15.80 -99.000   9.959   5.628   5.188   5.717   5.628   0.089   0.000   0.000  660.13  245.05   93.36  151.69    0.00    0.00 -99.000 -99.000 -99.000 
 1989 178    79  27.98  40.80  19.30 -99.000   9.438   5.450   4.823   5.530   5.450   0.079   0.000   0.000  669.57  250.58   98.81  151.77    0.00    0.00 -99.000 -99.000 -99.000 
 1989 179    80  28.00  40.30  22.40 -99.000   9.684   4.798   4.881   9.670   4.798   4.872   0.000   0.000  679.25  260.25  103.61  156.64    0.00    0.00 -99.000 -99.000 -99.000 
 1989 180    81  31.23  42.30  21.20 -99.000  11.545   5.912   5.634  11.532   5.912   5.621   0.000   0.000  690.80  271.78  109.52  162.26    0.00    0.00 -99.000 -99.000 -99.000 
 1989 181    82  32.06  42.40  19.20 -99.000  11.745   6.183   5.564  11.531   5.984   5.548   0.000   0.000  702.54  283.31  115.51  167.81    0.00    0.00 -99.000 -99.000 -99.000 
 1989 182    83  30.82  42.20  18.60 -99.000  11.017   7.031   5.072   9.296   7.031   2.265   0.000   0.000  713.56  292.61  122.54  170.07    0.00    0.00 -99.000 -99.000 -99.000 
 1989 183    84  32.11  42.20  19.90 -99.000  11.746   6.497   5.255  11.731   6.497   5.234   0.000   0.000  725.30  304.34  129.03  175.31    0.00    0.00 -99.000 -99.000 -99.000 
 1989 184    85  31.64  43.70  19.20 -99.000  12.141   7.174   5.276  12.112   7.160   4.952   0.000   0.000  737.44  316.45  136.19  180.26    0.00    0.00 -99.000 -99.000 -99.000 
 1989 185    86  30.80  45.80  19.40 -99.000  12.785   8.713   5.405   9.433   8.713   0.720   0.000   0.000  750.23  325.89  144.91  180.98    0.00    0.00 -99.000 -99.000 -99.000 
 1989 186    87  30.83  42.80  23.40 -99.000  11.796   6.942   4.863  11.777   6.942   4.835   0.000   0.000  762.03  337.66  151.85  185.82    0.00    0.00 -99.000 -99.000 -99.000 
 1989 187    88  27.45  42.80  24.40 -99.000  10.456   6.277   4.190  10.346   6.183   4.163   0.000   0.000  772.48  348.01  158.03  189.98    0.00    0.00 -99.000 -99.000 -99.000 
 1989 188    89  30.13  43.60  25.50 -99.000  11.874   8.535   4.617  11.372   8.535   2.836   0.000   0.000  784.36  359.38  166.57  192.81    0.00    0.00 -99.000 -99.000 -99.000 
 1989 189    90  25.82  40.80  25.70 -99.000   9.101   5.674   3.440   9.084   5.674   3.410   0.000   0.000  793.46  368.47  172.24  196.22    0.00    0.00 -99.000 -99.000 -99.000 
 1989 190    91  29.51  40.00  23.60 -99.000   9.828   6.247   3.598   9.708   6.147   3.562   0.000   0.000  803.28  378.17  178.39  199.79    0.00    0.00 -99.000 -99.000 -99.000 
 1989 191    92  19.08  38.50  23.20 -99.000   5.871   3.784   2.099   5.859   3.784   2.075   0.000   0.000  809.15  384.03  182.17  201.86    0.00    0.00 -99.000 -99.000 -99.000 
 1989 192    93  29.59  36.60  22.10 -99.000   8.188   6.244   2.843   8.135   6.244   1.891   0.000   0.000  817.34  392.17  188.41  203.75    0.00    0.00 -99.000 -99.000 -99.000 
 1989 193    94  30.50  40.40  21.30 -99.000  10.214   6.792   3.469  10.202   6.792   3.411   0.000   0.000  827.56  402.37  195.21  207.16    0.00    0.00 -99.000 -99.000 -99.000 
 1989 194    95  31.00  42.70  19.70 -99.000  11.328   7.593   3.793  11.311   7.593   3.718   0.000   0.000  838.89  413.68  202.80  210.88    0.00    0.00 -99.000 -99.000 -99.000 
 1989 195    96  30.17  43.40  21.20 -99.000  11.418   7.998   3.766  11.396   7.996   3.400   0.000   0.001  850.30  425.08  210.80  214.28    0.00    0.00 -99.000 -99.000 -99.000 
 1989 196    97  28.85  41.00  23.90 -99.000   9.967   7.815   3.245   8.422   7.815   0.608   0.000   0.001  860.27  433.50  218.61  214.89    0.00    0.00 -99.000 -99.000 -99.000 
 1989 197    98  19.64  39.20  26.10 -99.000   6.396   4.400   2.046   6.386   4.400   1.986   0.000   0.001  866.67  439.88  223.01  216.87    0.00    0.00 -99.000 -99.000 -99.000 
 1989 198    99  28.27  41.10  24.30 -99.000   9.904   6.871   3.123   9.888   6.871   3.017   0.000   0.001  876.57  449.77  229.88  219.89    0.00    0.01 -99.000 -99.000 -99.000 
 1989 199   100  30.29  43.60  23.00 -99.000  11.692   8.152   3.659  11.671   8.152   3.519   0.000   0.002  888.26  461.44  238.03  223.41    0.00    0.01 -99.000 -99.000 -99.000 
 1989 200   101  29.67  43.90  26.30 -99.000  11.864   8.323   3.672  11.838   8.323   3.515   0.000   0.002  900.13  473.28  246.36  226.92    0.00    0.01 -99.000 -99.000 -99.000 
 1989 201   102  29.67  42.70  27.30 -99.000  11.328   8.059   3.409  11.304   8.059   3.245   0.000   0.002  911.45  484.59  254.42  230.17    0.00    0.01 -99.000 -99.000 -99.000 
 1989 202   103  21.28  41.10  24.30 -99.000   7.429   5.348   2.177   7.412   5.348   2.064   0.000   0.003  918.88  492.00  259.76  232.23    0.00    0.01 -99.000 -99.000 -99.000 
 1989 203   104  23.31  38.00  23.70 -99.000   6.983   5.073   2.009   6.968   5.073   1.895   0.000   0.003  925.87  498.97  264.84  234.13    0.00    0.02 -99.000 -99.000 -99.000 
 1989 204   105  27.36  40.10  24.50 -99.000   9.096   6.658   2.582   9.053   6.635   2.417   0.000   0.003  934.96  508.02  271.47  236.55    0.00    0.02 -99.000 -99.000 -99.000 
 1989 205   106  28.61  41.50  25.20 -99.000  10.163   7.589   2.867  10.142   7.589   2.552   0.000   0.004  945.13  518.16  279.06  239.10    0.00    0.02 -99.000 -99.000 -99.000 
 1989 206   107  29.61  41.20  24.80 -99.000  10.334   8.549   2.891   9.777   8.549   1.227   0.000   0.004  955.46  527.94  287.61  240.32    0.00    0.03 -99.000 -99.000 -99.000 
 1989 207   108  29.17  40.10  25.50 -99.000   9.716   8.034   2.719   8.332   8.034   0.298   0.000   0.005  965.17  536.27  295.65  240.62    0.00    0.03 -99.000 -99.000 -99.000 
 1989 208   109  25.23  38.40  21.30 -99.000   7.538   6.235   2.110   6.424   6.235   0.189   0.000   0.005  972.71  542.69  301.88  240.81    0.00    0.04 -99.000 -99.000 -99.000 
 1989 209   110  24.92  34.70  21.20 -99.000   6.259   4.633   1.770   6.229   4.633   1.595   0.000   0.020  978.97  548.92  306.51  242.41    0.00    0.06 -99.000 -99.000 -99.000 
 1989 210   111  26.68  37.30  23.30 -99.000   7.696   5.686   2.202   7.664   5.686   1.978   0.000   0.021  986.67  556.59  312.20  244.39    0.00    0.08 -99.000 -99.000 -99.000 
 1989 211   112  29.06  38.90  22.90 -99.000   9.047   6.684   2.598   9.011   6.684   2.327   0.000   0.019  995.71  565.60  318.88  246.71    0.00    0.10 -99.000 -99.000 -99.000 
 1989 212   113  26.56  39.70  26.10 -99.000   8.750   6.448   2.541   8.717   6.448   2.268   0.000   0.018   1004.    574.    325.    249.      0.      0. -99.000 -99.000 -99.000 
 1989 213   114  27.97  41.40  23.10 -99.000   9.789   7.229   2.843   9.743   7.229   2.515   0.000   0.030   1014.    584.    333.    251.      0.      0. -99.000 -99.000 -99.000 
 1989 214   115  29.55  39.90  22.00 -99.000   9.559   7.084   2.787   9.513   7.084   2.429   0.000   0.029   1024.    594.    340.    254.      0.      0. -99.000 -99.000 -99.000 
 1989 215   116  25.02  37.90  23.90 -99.000   7.453   5.504   2.199   7.412   5.504   1.908   0.000   0.027   1031.    601.    345.    256.      0.      0. -99.000 -99.000 -99.000 
 1989 216   117  26.42  37.40  22.80 -99.000   7.609   5.622   2.267   7.551   5.622   1.929   0.000   0.044   1039.    609.    351.    258.      0.      0. -99.000 -99.000 -99.000 
 1989 217   118  28.03  38.50  23.90 -99.000   8.595   6.339   2.592   8.539   6.339   2.201   0.000   0.039   1047.    617.    357.    260.      0.      0. -99.000 -99.000 -99.000 
 1989 218   119  25.08  40.40  24.10 -99.000   8.408   6.194   2.558   8.356   6.194   2.162   0.000   0.034   1056.    625.    363.    262.      0.      0. -99.000 -99.000 -99.000 
 1989 219   120  27.47  38.80  24.20 -99.000   8.556   6.312   2.621   8.506   6.312   2.194   0.000   0.030   1064.    634.    370.    264.      0.      0. -99.000 -99.000 -99.000 
 1989 220   121  27.58  39.30  24.30 -99.000   8.783   6.478   2.719   8.738   6.478   2.260   0.000   0.027   1073.    643.    376.    267.      0.      0. -99.000 -99.000 -99.000 
 1989 221   122  25.31  37.80  23.50 -99.000   7.463   5.509   2.318   7.423   5.509   1.914   0.000   0.023   1081.    650.    382.    268.      0.      0. -99.000 -99.000 -99.000 
 1989 222   123  18.77  34.70  23.80 -99.000   4.761   3.507   1.494   4.732   3.507   1.225   0.000   0.020   1085.    655.    385.    270.      0.      0. -99.000 -99.000 -99.000 
 1989 223   124  23.38  37.60  22.20 -99.000   6.770   4.980   2.142   6.744   4.980   1.763   0.000   0.016   1092.    662.    390.    271.      0.      0. -99.000 -99.000 -99.000 
 1989 224   125  26.65  39.00  26.40 -99.000   8.479   6.228   2.705   8.452   6.228   2.224   0.000   0.013   1101.    670.    396.    274.      0.      0. -99.000 -99.000 -99.000 
 1989 225   126  28.23  41.70  25.20 -99.000  10.100   7.418   3.237  10.069   7.418   2.651   0.000   0.011   1111.    680.    404.    276.      0.      0. -99.000 -99.000 -99.000 
 1989 226   127  27.94  41.60  27.30 -99.000  10.056   7.381   3.248  10.027   7.381   2.646   0.000   0.010   1121.    690.    411.    279.      0.      0. -99.000 -99.000 -99.000 
 1989 227   128  27.77  41.40  25.20 -99.000   9.798   7.201   3.166   9.773   7.201   2.572   0.000   0.009   1131.    700.    418.    282.      0.      0. -99.000 -99.000 -99.000 
 1989 228   129  24.52  40.10  23.80 -99.000   8.063   5.918   2.615   8.038   5.918   2.120   0.000   0.007   1139.    708.    424.    284.      0.      0. -99.000 -99.000 -99.000 
 1989 229   130  27.34  38.60  22.00 -99.000   8.294   6.083   2.703   8.269   6.083   2.186   0.000   0.006   1147.    716.    430.    286.      0.      0. -99.000 -99.000 -99.000 
 1989 230   131  24.24  37.60  24.50 -99.000   7.096   5.201   2.328   7.078   5.201   1.876   0.000   0.005   1154.    723.    436.    288.      0.      0. -99.000 -99.000 -99.000 
 1989 231   132  27.31  39.10  22.00 -99.000   8.486   6.212   2.803   8.469   6.212   2.257   0.000   0.005   1163.    732.    442.    290.      0.      0. -99.000 -99.000 -99.000 
 1989 232   133  27.71  38.50  21.30 -99.000   8.306   6.063   2.761   8.283   6.063   2.220   0.000   0.004   1171.    740.    448.    292.      0.      1. -99.000 -99.000 -99.000 
 1989 233   134  27.03  37.40  19.90 -99.000   7.611   5.548   2.545   7.592   5.548   2.044   0.000   0.003   1178.    748.    453.    294.      0.      1. -99.000 -99.000 -99.000 
 1989 234   135  28.22  38.50  15.10 -99.000   8.111   5.905   2.727   8.094   5.905   2.189   0.000   0.003   1187.    756.    459.    296.      0.      1. -99.000 -99.000 -99.000 
 1989 235   136  28.49  39.40  15.20 -99.000   8.579   6.239   2.898   8.562   6.239   2.323   0.000   0.002   1195.    764.    465.    299.      0.      1. -99.000 -99.000 -99.000 
 1989 236   137  28.48  38.00  18.00 -99.000   8.141   5.913   2.763   8.125   5.913   2.212   0.000   0.002   1203.    772.    471.    301.      0.      1. -99.000 -99.000 -99.000 
 1989 237   138  28.36  38.30  17.70 -99.000   8.198   5.942   2.795   8.179   5.942   2.237   0.000   0.002   1212.    781.    477.    303.      0.      1. -99.000 -99.000 -99.000 
 1989 238   139  28.38  38.30  14.90 -99.000   8.037   5.820   2.753   8.019   5.819   2.201   0.000   0.001   1220.    789.    483.    305.      0.      1. -99.000 -99.000 -99.000 
 1989 239   140  27.64  38.20  17.70 -99.000   7.927   6.071   2.727   7.713   6.071   1.642   0.000   0.001   1227.    796.    489.    307.      0.      1. -99.000 -99.000 -99.000 
 1989 240   141  27.25  39.20  18.00 -99.000   8.216   6.281   2.838   6.793   6.281   0.513   0.000   0.001   1236.    803.    496.    308.      0.      1. -99.000 -99.000 -99.000 
 1989 241   142  26.78  41.00  17.70 -99.000   8.765   6.688   3.039   6.926   6.688   0.238   0.000   0.001   1244.    810.    502.    308.      0.      1. -99.000 -99.000 -99.000 
 1989 242   143  26.12  40.00  21.00 -99.000   8.340   6.352   2.902   6.519   6.352   0.168   0.000   0.001   1253.    817.    509.    308.      0.      1. -99.000 -99.000 -99.000 
 1989 243   144  25.77  38.70  21.90 -99.000   7.778   5.921   2.711   6.054   5.921   0.133   0.000   0.001   1261.    823.    514.    308.      0.      1. -99.000 -99.000 -99.000 
 1989 244   145  25.89  40.10  20.80 -99.000   8.293   6.303   2.901   6.418   6.303   0.115   0.000   0.001   1269.    829.    521.    308.      0.      1. -99.000 -99.000 -99.000 
 1989 245   146  15.52  35.00  22.80 -99.000   3.887   2.949   1.364   3.050   2.949   0.102   0.000   0.001   1273.    832.    524.    308.      0.      1. -99.000 -99.000 -99.000 
 1989 246   147  16.85  32.20  20.70 -99.000   4.040   3.058   1.422   3.148   3.058   0.090   0.000   0.001   1277.    835.    527.    308.      0.      1. -99.000 -99.000 -99.000 
 1989 247   148  24.90  38.20  21.00 -99.000   7.351   5.282   2.595   7.227   5.282   1.944   0.000   0.116   1284.    842.    532.    310.      0.      1. -99.000 -99.000 -99.000 
 1989 248   149  25.81  41.10  21.20 -99.000   8.729   6.267   3.091   8.636   6.267   2.369   0.000   0.084   1293.    851.    538.    313.      0.      1. -99.000 -99.000 -99.000 
 1989 249   150  24.87  40.70  22.80 -99.000   8.323   5.969   2.955   8.230   5.947   2.283   0.000   0.060   1301.    859.    544.    315.      0.      1. -99.000 -99.000 -99.000 
 1989 250   151  25.72  40.00  22.00 -99.000   8.276   5.926   2.946   8.217   5.926   2.291   0.000   0.044   1309.    868.    550.    317.      0.      1. -99.000 -99.000 -99.000 
 1989 251   152  26.13  36.80  20.70 -99.000   7.105   5.343   2.536   5.500   5.343   0.157   0.000   0.031   1317.    873.    556.    317.      0.      1. -99.000 -99.000 -99.000 
 1989 252   153  26.28  37.70  13.90 -99.000   7.143   5.369   2.555   5.435   5.369   0.066   0.000   0.023   1324.    878.    561.    318.      0.      1. -99.000 -99.000 -99.000 
 1989 253   154  26.25  37.90  15.10 -99.000   7.268   5.457   2.605   5.513   5.457   0.056   0.000   0.016   1331.    884.    566.    318.      0.      1. -99.000 -99.000 -99.000 
 1989 254   155  26.00  37.20  15.50 -99.000   6.964   5.221   2.501   5.269   5.221   0.049   0.000   0.012   1338.    889.    572.    318.      0.      1. -99.000 -99.000 -99.000 
 1989 255   156  25.33  36.90  14.80 -99.000   6.646   4.959   2.411   4.829   4.787   0.042   0.000   0.009   1345.    894.    576.    318.      0.      1. -99.000 -99.000 -99.000 
 1989 256   157  24.81  36.00  13.60 -99.000   6.150   4.568   2.253   3.847   3.810   0.037   0.000   0.006   1351.    898.    580.    318.      0.      1. -99.000 -99.000 -99.000 
 1989 257   158  24.89  38.20  13.00 -99.000   6.888   5.090   2.548   3.226   3.194   0.032   0.000   0.006   1358.    901.    583.    318.      0.      1. -99.000 -99.000 -99.000 
 1989 258   159  24.25  39.20  13.40 -99.000   7.067   5.195   2.640   2.893   2.865   0.028   0.000   0.005   1365.    904.    586.    318.      0.      1. -99.000 -99.000 -99.000 
 1989 259   160  22.64  40.70  19.40 -99.000   7.371   5.391   2.780   2.687   2.662   0.025   0.000   0.004   1372.    907.    589.    318.      0.      1. -99.000 -99.000 -99.000 
 1989 260   161  20.04  36.60  19.90 -99.000   5.351   3.888   2.038   2.525   2.503   0.022   0.000   0.004   1377.    909.    591.    318.      0.      1. -99.000 -99.000 -99.000 
 1989 261   162  24.20  36.10  16.40 -99.000   6.140   4.438   2.361   2.418   2.398   0.020   0.000   0.004   1384.    912.    594.    318.      0.      1. -99.000 -99.000 -99.000 
 1989 262   163  24.00  34.00  13.60 -99.000   5.556   3.992   2.156   2.340   2.322   0.018   0.000   0.004   1389.    914.    596.    318.      0.      1. -99.000 -99.000 -99.000 
 1989 263   164  24.34  31.00  10.30 -99.000   5.312   3.801   2.080   2.274   2.258   0.016   0.000   0.003   1394.    916.    598.    318.      0.      1. -99.000 -99.000 -99.000 

*DSSAT Cropping System Model Ver. 4.8.2.006 -  APR 10, 2025 22:06:01

*RUN   2        : CO2 Enrichment - 550 ppm  CRGRO048 AZMC8901    2
 MODEL          : CRGRO048 - Cotton
 EXPERIMENT     : AZMC8901 CO 1989 FACE EXPERIMENT
 DATA PATH      :
 TREATMENT  2   : CO2 Enrichment - 550 ppm  CRGRO048
  
@YEAR DOY   DAS   SRAA  TMAXA  TMINA    REFA    EOAA    EOPA    EOSA    ETAA    EPAA    ESAA    EFAA    EMAA    EOAC    ETAC    EPAC    ESAC    EFAC    EMAC    KCAA    KBSA    KEAA
 1989 100     1  27.94  36.30  12.60 -99.000   7.819   0.000   7.819   5.809   0.000   5.809   0.000   0.000    7.82    5.81    0.00    5.81    0.00    0.00 -99.000 -99.000 -99.000 
 1989 101     2  25.12  34.30  13.10 -99.000   6.580   0.000   6.580   6.425   0.000   6.425   0.000   0.000   14.40   12.23    0.00   12.23    0.00    0.00 -99.000 -99.000 -99.000 
 1989 102     3  27.17  32.70  14.10 -99.000   6.774   0.000   6.774   1.163   0.000   1.163   0.000   0.000   21.17   13.40    0.00   13.40    0.00    0.00 -99.000 -99.000 -99.000 
 1989 103     4  27.13  32.20  15.00 -99.000   6.743   0.000   6.743   0.509   0.000   0.509   0.000   0.000   27.92   13.91    0.00   13.91    0.00    0.00 -99.000 -99.000 -99.000 
 1989 104     5  27.73  33.80  12.60 -99.000   6.890   0.000   6.890   0.457   0.000   0.457   0.000   0.000   34.81   14.36    0.00   14.36    0.00    0.00 -99.000 -99.000 -99.000 
 1989 105     6  24.07  33.70  13.30 -99.000   6.003   0.000   6.003   0.416   0.000   0.416   0.000   0.000   40.81   14.78    0.00   14.78    0.00    0.00 -99.000 -99.000 -99.000 
 1989 106     7  27.96  35.00  13.90 -99.000   7.102   0.000   7.102   0.383   0.000   0.383   0.000   0.000   47.91   15.16    0.00   15.16    0.00    0.00 -99.000 -99.000 -99.000 
 1989 107     8  27.23  35.10  12.10 -99.000   6.864   0.000   6.864   0.355   0.000   0.355   0.000   0.000   54.78   15.52    0.00   15.52    0.00    0.00 -99.000 -99.000 -99.000 
 1989 108     9  28.75  36.80  12.20 -99.000   7.954   0.000   7.954   0.331   0.000   0.331   0.000   0.000   62.73   15.85    0.00   15.85    0.00    0.00 -99.000 -99.000 -99.000 
 1989 109    10  27.86  38.80  12.90 -99.000   8.576   0.000   8.576   0.311   0.000   0.311   0.000   0.000   71.31   16.16    0.00   16.16    0.00    0.00 -99.000 -99.000 -99.000 
 1989 110    11  26.77  40.40  13.70 -99.000   8.945   0.000   8.945   0.294   0.000   0.294   0.000   0.000   80.25   16.45    0.00   16.45    0.00    0.00 -99.000 -99.000 -99.000 
 1989 111    12  25.01  38.80  17.50 -99.000   7.943   0.000   7.943   0.279   0.000   0.279   0.000   0.000   88.20   16.73    0.00   16.73    0.00    0.00 -99.000 -99.000 -99.000 
 1989 112    13  22.78  33.70  15.70 -99.000   5.776   0.000   5.776   0.265   0.000   0.265   0.000   0.000   93.97   17.00    0.00   17.00    0.00    0.00 -99.000 -99.000 -99.000 
 1989 113    14  29.70  32.20  11.40 -99.000   7.174   0.000   7.174   0.253   0.000   0.253   0.000   0.000  101.15   17.25    0.00   17.25    0.00    0.00 -99.000 -99.000 -99.000 
 1989 114    15  27.94  27.80  11.50 -99.000   6.417   0.000   6.417   0.242   0.000   0.242   0.000   0.000  107.56   17.49    0.00   17.49    0.00    0.00 -99.000 -99.000 -99.000 
 1989 115    16  28.87  26.40   8.30 -99.000   6.876   0.000   6.876   6.876   0.000   6.876   0.000   0.000  114.44   24.37    0.00   24.37    0.00    0.00 -99.000 -99.000 -99.000 
 1989 116    17  30.29  21.80  10.00 -99.000   6.573   0.000   6.573   4.971   0.000   4.971   0.000   0.000  121.01   29.34    0.00   29.34    0.00    0.00 -99.000 -99.000 -99.000 
 1989 117    18  30.04  26.30   5.50 -99.000   6.457   0.000   6.457   0.493   0.000   0.493   0.000   0.000  127.47   29.83    0.00   29.83    0.00    0.00 -99.000 -99.000 -99.000 
 1989 118    19  29.99  28.70   7.20 -99.000   6.737   0.035   6.714   0.592   0.035   0.557   0.000   0.000  134.20   30.42    0.03   30.39    0.00    0.00 -99.000 -99.000 -99.000 
 1989 119    20  29.82  30.40   9.60 -99.000   7.526   0.027   7.500   7.526   0.027   7.500   0.000   0.000  141.73   37.95    0.06   37.89    0.00    0.00 -99.000 -99.000 -99.000 
 1989 120    21  28.89  32.70  12.10 -99.000   7.239   0.042   7.212   4.391   0.042   4.348   0.000   0.000  148.97   42.34    0.10   42.24    0.00    0.00 -99.000 -99.000 -99.000 
 1989 121    22  28.67  34.70  13.50 -99.000   7.240   0.047   7.210   0.570   0.047   0.523   0.000   0.000  156.21   42.91    0.15   42.76    0.00    0.00 -99.000 -99.000 -99.000 
 1989 122    23  28.73  35.30  13.10 -99.000   7.974   0.038   7.936   7.973   0.038   7.936   0.000   0.000  164.18   50.89    0.19   50.70    0.00    0.00 -99.000 -99.000 -99.000 
 1989 123    24  30.37  36.90  16.60 -99.000   8.910   0.073   8.862   4.007   0.073   3.935   0.000   0.000  173.09   54.89    0.26   54.63    0.00    0.00 -99.000 -99.000 -99.000 
 1989 124    25  28.79  37.70  14.20 -99.000   8.469   0.079   8.417   0.620   0.079   0.540   0.000   0.000  181.56   55.51    0.34   55.17    0.00    0.00 -99.000 -99.000 -99.000 
 1989 125    26  29.70  39.80  16.80 -99.000   9.860   0.105   9.792   0.662   0.105   0.557   0.000   0.000  191.42   56.17    0.45   55.73    0.00    0.00 -99.000 -99.000 -99.000 
 1989 126    27  23.04  37.90  16.60 -99.000   7.513   0.060   7.453   7.513   0.060   7.453   0.000   0.000  198.94   63.69    0.51   63.18    0.00    0.00 -99.000 -99.000 -99.000 
 1989 127    28  30.55  40.80  13.80 -99.000  10.668   0.154  10.567   4.545   0.153   4.391   0.000   0.000  209.60   68.23    0.66   67.57    0.00    0.00 -99.000 -99.000 -99.000 
 1989 128    29  30.12  42.60  17.70 -99.000  11.415   0.186  11.293   0.707   0.186   0.521   0.000   0.000  221.02   68.94    0.84   68.09    0.00    0.00 -99.000 -99.000 -99.000 
 1989 129    30  25.85  38.70  21.90 -99.000   8.415   0.157   8.311   0.715   0.157   0.557   0.000   0.000  229.43   69.65    1.00   68.65    0.00    0.00 -99.000 -99.000 -99.000 
 1989 130    31  27.01  30.40  14.80 -99.000   7.074   0.104   6.969   7.073   0.104   6.969   0.000   0.000  236.51   76.73    1.11   75.62    0.00    0.00 -99.000 -99.000 -99.000 
 1989 131    32  27.14  24.10  12.10 -99.000   6.151   0.153   6.049   5.024   0.153   4.871   0.000   0.000  242.66   81.75    1.26   80.49    0.00    0.00 -99.000 -99.000 -99.000 
 1989 132    33  27.16  26.90   9.10 -99.000   6.355   0.111   6.244   6.339   0.096   6.244   0.000   0.000  249.01   88.09    1.35   86.74    0.00    0.00 -99.000 -99.000 -99.000 
 1989 133    34  27.71  29.70  11.50 -99.000   6.582   0.184   6.460   2.597   0.184   2.412   0.000   0.000  255.59   90.69    1.54   89.15    0.00    0.00 -99.000 -99.000 -99.000 
 1989 134    35  29.78  29.30  11.20 -99.000   6.941   0.209   6.803   0.766   0.209   0.557   0.000   0.000  262.54   91.45    1.75   89.70    0.00    0.00 -99.000 -99.000 -99.000 
 1989 135    36  24.29  26.60  13.50 -99.000   5.583   0.179   5.465   0.736   0.179   0.557   0.000   0.000  268.12   92.19    1.93   90.26    0.00    0.00 -99.000 -99.000 -99.000 
 1989 136    37  18.57  23.20  12.60 -99.000   4.064   0.138   3.973   0.695   0.138   0.557   0.000   0.000  272.18   92.88    2.06   90.82    0.00    0.00 -99.000 -99.000 -99.000 
 1989 137    38  30.24  29.90  10.30 -99.000   7.046   0.249   6.880   0.806   0.249   0.557   0.000   0.000  279.23   93.69    2.31   91.38    0.00    0.00 -99.000 -99.000 -99.000 
 1989 138    39  30.79  35.50  15.60 -99.000   8.121   0.302   7.920   0.818   0.302   0.516   0.000   0.000  287.35   94.51    2.62   91.89    0.00    0.00 -99.000 -99.000 -99.000 
 1989 139    40  31.51  36.70  15.30 -99.000   8.842   0.343   8.608   0.803   0.343   0.461   0.000   0.000  296.19   95.31    2.96   92.35    0.00    0.00 -99.000 -99.000 -99.000 
 1989 140    41  31.89  37.70  14.00 -99.000  10.056   0.272   9.773  10.026   0.252   9.773   0.000   0.000  306.25  105.34    3.21  102.13    0.00    0.00 -99.000 -99.000 -99.000 
 1989 141    42  29.20  38.30  16.60 -99.000   9.058   0.390   8.789   2.438   0.390   2.048   0.000   0.000  315.31  107.78    3.60  104.17    0.00    0.00 -99.000 -99.000 -99.000 
 1989 142    43  28.69  38.60  15.70 -99.000   8.891   0.429   8.596   0.986   0.429   0.557   0.000   0.000  324.20  108.76    4.03  104.73    0.00    0.00 -99.000 -99.000 -99.000 
 1989 143    44  32.42  39.50  15.40 -99.000  10.470   0.560  10.083   1.117   0.560   0.557   0.000   0.000  334.67  109.88    4.59  105.29    0.00    0.00 -99.000 -99.000 -99.000 
 1989 144    45  32.57  36.00  21.40 -99.000   9.172   0.532   8.799   1.089   0.532   0.557   0.000   0.000  343.84  110.97    5.12  105.85    0.00    0.00 -99.000 -99.000 -99.000 
 1989 145    46  32.23  34.80  13.50 -99.000   8.108   0.522   7.743   1.079   0.522   0.557   0.000   0.000  351.95  112.05    5.64  106.40    0.00    0.00 -99.000 -99.000 -99.000 
 1989 146    47  32.23  36.70  15.00 -99.000   9.668   0.450   9.202   9.631   0.429   9.202   0.000   0.000  361.62  121.68    6.07  115.61    0.00    0.00 -99.000 -99.000 -99.000 
 1989 147    48  31.85  38.20  15.90 -99.000   9.786   0.722   9.282   3.337   0.722   2.615   0.000   0.000  371.40  125.01    6.79  118.22    0.00    0.00 -99.000 -99.000 -99.000 
 1989 148    49  31.52  37.90  16.90 -99.000   9.481   0.787   8.924   1.344   0.787   0.557   0.000   0.000  380.88  126.36    7.58  118.78    0.00    0.00 -99.000 -99.000 -99.000 
 1989 149    50  31.23  36.00  17.60 -99.000   8.541   0.806   7.967   1.364   0.806   0.557   0.000   0.000  389.42  127.72    8.39  119.34    0.00    0.00 -99.000 -99.000 -99.000 
 1989 150    51  31.86  30.90  13.10 -99.000   7.623   0.818   7.038   1.375   0.818   0.557   0.000   0.000  397.05  129.10    9.20  119.89    0.00    0.00 -99.000 -99.000 -99.000 
 1989 151    52  32.64  34.20  10.40 -99.000   7.936   0.941   7.267   1.498   0.941   0.557   0.000   0.000  404.98  130.60   10.15  120.45    0.00    0.00 -99.000 -99.000 -99.000 
 1989 152    53  32.46  36.10  14.40 -99.000   8.700   1.105   7.906   1.585   1.105   0.480   0.000   0.000  413.68  132.18   11.25  120.93    0.00    0.00 -99.000 -99.000 -99.000 
 1989 153    54  32.62  35.60  13.90 -99.000   8.465   1.186   7.606   1.604   1.186   0.418   0.000   0.000  422.15  133.78   12.44  121.35    0.00    0.00 -99.000 -99.000 -99.000 
 1989 154    55  31.83  35.30  16.70 -99.000   8.275   1.270   7.346   1.637   1.270   0.367   0.000   0.000  430.42  135.42   13.71  121.71    0.00    0.00 -99.000 -99.000 -99.000 
 1989 155    56  31.39  36.70  16.00 -99.000   8.745   1.483   7.645   1.807   1.483   0.323   0.000   0.000  439.17  137.23   15.19  122.04    0.00    0.00 -99.000 -99.000 -99.000 
 1989 156    57  32.17  36.70  17.60 -99.000   9.047   1.688   7.780   1.974   1.688   0.286   0.000   0.000  448.22  139.20   16.88  122.32    0.00    0.00 -99.000 -99.000 -99.000 
 1989 157    58  32.30  35.40  15.70 -99.000   8.861   1.327   7.477   8.804   1.327   7.477   0.000   0.000  457.08  148.01   18.21  129.80    0.00    0.00 -99.000 -99.000 -99.000 
 1989 158    59  32.10  37.70  16.00 -99.000   9.553   2.160   7.909   6.473   2.159   4.314   0.000   0.000  466.63  154.48   20.36  134.11    0.00    0.00 -99.000 -99.000 -99.000 
 1989 159    60  32.08  36.30  16.30 -99.000   8.721   2.141   7.068   2.666   2.141   0.525   0.000   0.000  475.35  157.14   22.51  134.64    0.00    0.00 -99.000 -99.000 -99.000 
 1989 160    61  32.56  37.40  16.70 -99.000   9.387   2.493   7.434   3.050   2.493   0.557   0.000   0.000  484.74  160.19   25.00  135.20    0.00    0.00 -99.000 -99.000 -99.000 
 1989 161    62  31.82  37.10  17.30 -99.000   9.054   2.592   6.990   3.149   2.592   0.557   0.000   0.000  493.79  163.34   27.59  135.75    0.00    0.00 -99.000 -99.000 -99.000 
 1989 162    63  32.25  38.10  17.70 -99.000   9.661   3.003   7.251   3.479   3.003   0.476   0.000   0.000  503.45  166.82   30.59  136.23    0.00    0.00 -99.000 -99.000 -99.000 
 1989 163    64  31.91  37.40  17.70 -99.000   9.206   3.065   6.699   3.450   3.065   0.384   0.000   0.000  512.66  170.27   33.66  136.61    0.00    0.00 -99.000 -99.000 -99.000 
 1989 164    65  29.10  40.90  20.00 -99.000  10.554   3.014   7.428  10.442   3.014   7.428   0.000   0.000  523.21  180.71   36.67  144.04    0.00    0.00 -99.000 -99.000 -99.000 
 1989 165    66  31.26  41.90  21.60 -99.000  11.576   4.420   7.831   8.706   4.419   4.288   0.000   0.000  534.79  189.42   41.09  148.33    0.00    0.00 -99.000 -99.000 -99.000 
 1989 166    67  31.04  42.20  19.90 -99.000  11.344   4.610   7.353   5.136   4.610   0.526   0.000   0.000  546.13  194.56   45.70  148.86    0.00    0.00 -99.000 -99.000 -99.000 
 1989 167    68  31.05  42.10  20.10 -99.000  11.291   4.873   6.996   5.431   4.873   0.557   0.000   0.000  557.42  199.99   50.57  149.41    0.00    0.00 -99.000 -99.000 -99.000 
 1989 168    69  31.83  42.90  21.20 -99.000  12.043   5.516   7.187   6.006   5.516   0.490   0.000   0.000  569.47  205.99   56.09  149.90    0.00    0.00 -99.000 -99.000 -99.000 
 1989 169    70  32.31  43.80  19.30 -99.000  12.520   6.058   7.238   6.414   6.058   0.355   0.000   0.000  581.99  212.41   62.15  150.26    0.00    0.00 -99.000 -99.000 -99.000 
 1989 170    71  17.59  41.60  22.10 -99.000   6.297   3.171   3.528   3.425   3.171   0.254   0.000   0.000  588.28  215.83   65.32  150.51    0.00    0.00 -99.000 -99.000 -99.000 
 1989 171    72  27.46  42.30  21.10 -99.000  10.050   5.368   5.397   5.543   5.368   0.175   0.000   0.000  598.33  221.37   70.69  150.69    0.00    0.00 -99.000 -99.000 -99.000 
 1989 172    73  30.51  41.40  24.10 -99.000  10.916   6.015   5.643   6.169   6.015   0.153   0.000   0.000  609.25  227.54   76.70  150.84    0.00    0.00 -99.000 -99.000 -99.000 
 1989 173    74  32.41  39.30  17.60 -99.000  10.068   5.842   5.007   5.972   5.842   0.130   0.000   0.000  619.32  233.52   82.55  150.97    0.00    0.00 -99.000 -99.000 -99.000 
 1989 174    75  32.38  40.20  18.50 -99.000  10.544   6.256   5.064   6.368   6.256   0.113   0.000   0.000  629.86  239.88   88.80  151.08    0.00    0.00 -99.000 -99.000 -99.000 
 1989 175    76  31.75  39.00  18.80 -99.000   9.770   6.037   4.521   6.136   6.037   0.098   0.000   0.000  639.63  246.02   94.84  151.18    0.00    0.00 -99.000 -99.000 -99.000 
 1989 176    77  31.70  38.00  18.00 -99.000   9.222   5.865   4.106   5.949   5.865   0.085   0.000   0.000  648.86  251.97  100.70  151.27    0.00    0.00 -99.000 -99.000 -99.000 
 1989 177    78  31.63  39.80  15.80 -99.000   9.885   6.533   4.241   6.607   6.533   0.073   0.000   0.000  658.74  258.58  107.24  151.34    0.00    0.00 -99.000 -99.000 -99.000 
 1989 178    79  27.98  40.80  19.30 -99.000   9.373   6.252   3.979   6.013   5.950   0.063   0.000   0.000  668.11  264.59  113.19  151.40    0.00    0.00 -99.000 -99.000 -99.000 
 1989 179    80  28.00  40.30  22.40 -99.000   9.548   5.335   4.047   9.371   5.335   4.036   0.000   0.000  677.66  273.96  118.52  155.44    0.00    0.00 -99.000 -99.000 -99.000 
 1989 180    81  31.23  42.30  21.20 -99.000  11.440   6.646   4.647  11.279   6.646   4.633   0.000   0.000  689.10  285.24  125.17  160.07    0.00    0.00 -99.000 -99.000 -99.000 
 1989 181    82  32.06  42.40  19.20 -99.000  11.633   6.918   4.555  11.453   6.918   4.535   0.000   0.000  700.73  296.69  132.08  164.61    0.00    0.00 -99.000 -99.000 -99.000 
 1989 182    83  30.82  42.20  18.60 -99.000  10.956   7.113   4.145  10.759   7.113   3.646   0.000   0.000  711.69  307.45  139.20  168.25    0.00    0.00 -99.000 -99.000 -99.000 
 1989 183    84  32.11  42.20  19.90 -99.000  11.586   7.191   4.247  11.409   7.191   4.219   0.000   0.000  723.28  318.86  146.39  172.47    0.00    0.00 -99.000 -99.000 -99.000 
 1989 184    85  31.64  43.70  19.20 -99.000  12.040   7.646   4.295  11.840   7.630   4.210   0.000   0.000  735.32  330.70  154.02  176.68    0.00    0.00 -99.000 -99.000 -99.000 
 1989 185    86  30.80  45.80  19.40 -99.000  12.724   9.499   4.427  10.925   9.499   1.426   0.000   0.000  748.04  341.62  163.52  178.11    0.00    0.00 -99.000 -99.000 -99.000 
 1989 186    87  30.83  42.80  23.40 -99.000  11.658   7.516   3.959  11.434   7.516   3.918   0.000   0.000  759.70  353.06  171.03  182.03    0.00    0.00 -99.000 -99.000 -99.000 
 1989 187    88  27.45  42.80  24.40 -99.000  10.379   6.806   3.428  10.194   6.806   3.388   0.000   0.000  770.08  363.25  177.84  185.41    0.00    0.00 -99.000 -99.000 -99.000 
 1989 188    89  30.13  43.60  25.50 -99.000  11.819   7.893   3.812  11.620   7.893   3.727   0.000   0.000  781.90  374.87  185.73  189.14    0.00    0.00 -99.000 -99.000 -99.000 
 1989 189    90  25.82  40.80  25.70 -99.000   9.022   6.006   2.867   8.833   6.006   2.827   0.000   0.000  790.92  383.70  191.74  191.97    0.00    0.00 -99.000 -99.000 -99.000 
 1989 190    91  29.51  40.00  23.60 -99.000   9.773   6.543   3.053   9.549   6.543   3.006   0.000   0.000  800.69  393.25  198.28  194.97    0.00    0.00 -99.000 -99.000 -99.000 
 1989 191    92  19.08  38.50  23.20 -99.000   5.849   3.937   1.800   5.705   3.935   1.770   0.000   0.000  806.54  398.96  202.21  196.74    0.00    0.00 -99.000 -99.000 -99.000 
 1989 192    93  29.59  36.60  22.10 -99.000   8.166   5.619   2.462   8.033   5.619   2.415   0.000   0.000  814.71  406.99  207.83  199.16    0.00    0.00 -99.000 -99.000 -99.000 
 1989 193    94  30.50  40.40  21.30 -99.000  10.159   7.044   3.054  10.027   7.044   2.982   0.000   0.001  824.87  417.02  214.88  202.14    0.00    0.00 -99.000 -99.000 -99.000 
 1989 194    95  31.00  42.70  19.70 -99.000  11.288   7.803   3.389  11.100   7.803   3.297   0.000   0.001  836.15  428.12  222.68  205.44    0.00    0.00 -99.000 -99.000 -99.000 
 1989 195    96  30.17  43.40  21.20 -99.000  11.393   7.862   3.419  11.168   7.858   3.309   0.000   0.001  847.55  439.29  230.54  208.75    0.00    0.00 -99.000 -99.000 -99.000 
 1989 196    97  28.85  41.00  23.90 -99.000   9.952   7.904   2.974   8.948   7.904   1.044   0.000   0.001  857.50  448.23  238.44  209.79    0.00    0.01 -99.000 -99.000 -99.000 
 1989 197    98  19.64  39.20  26.10 -99.000   6.373   4.451   1.890   6.266   4.451   1.815   0.000   0.002  863.87  454.50  242.89  211.61    0.00    0.01 -99.000 -99.000 -99.000 
 1989 198    99  28.27  41.10  24.30 -99.000   9.876   6.928   2.921   9.718   6.928   2.790   0.000   0.002  873.75  464.22  249.82  214.40    0.00    0.01 -99.000 -99.000 -99.000 
 1989 199   100  30.29  43.60  23.00 -99.000  11.669   8.166   3.463  11.455   8.166   3.289   0.000   0.002  885.42  475.67  257.99  217.69    0.00    0.01 -99.000 -99.000 -99.000 
 1989 200   101  29.67  43.90  26.30 -99.000  11.840   8.273   3.506  11.584   8.273   3.310   0.000   0.003  897.26  487.26  266.26  221.00    0.00    0.01 -99.000 -99.000 -99.000 
 1989 201   102  29.67  42.70  27.30 -99.000  11.305   8.031   3.235  11.063   8.031   3.032   0.000   0.003  908.56  498.32  274.29  224.03    0.00    0.02 -99.000 -99.000 -99.000 
 1989 202   103  21.28  41.10  24.30 -99.000   7.414   5.323   2.068   7.249   5.323   1.926   0.000   0.004  915.98  505.57  279.61  225.95    0.00    0.02 -99.000 -99.000 -99.000 
 1989 203   104  23.31  38.00  23.70 -99.000   6.971   5.044   1.941   6.836   5.044   1.792   0.000   0.005  922.95  512.40  284.66  227.75    0.00    0.03 -99.000 -99.000 -99.000 
 1989 204   105  27.36  40.10  24.50 -99.000   9.082   6.587   2.520   8.889   6.587   2.301   0.000   0.006  932.03  521.29  291.25  230.05    0.00    0.03 -99.000 -99.000 -99.000 
 1989 205   106  28.61  41.50  25.20 -99.000  10.150   7.378   2.846   9.952   7.375   2.578   0.000   0.007  942.18  531.24  298.62  232.62    0.00    0.04 -99.000 -99.000 -99.000 
 1989 206   107  29.61  41.20  24.80 -99.000  10.320   8.352   2.870   9.884   8.352   1.532   0.000   0.007  952.50  541.13  306.97  234.16    0.00    0.05 -99.000 -99.000 -99.000 
 1989 207   108  29.17  40.10  25.50 -99.000   9.702   7.799   2.726   8.104   7.799   0.305   0.000   0.007  962.20  549.23  314.77  234.46    0.00    0.05 -99.000 -99.000 -99.000 
 1989 208   109  25.23  38.40  21.30 -99.000   7.526   6.051   2.135   6.246   6.051   0.195   0.000   0.008  969.73  555.48  320.82  234.66    0.00    0.06 -99.000 -99.000 -99.000 
 1989 209   110  24.92  34.70  21.20 -99.000   6.246   4.568   1.784   6.107   4.568   1.540   0.000   0.036  975.97  561.59  325.39  236.20    0.00    0.10 -99.000 -99.000 -99.000 
 1989 210   111  26.68  37.30  23.30 -99.000   7.680   5.613   2.219   7.522   5.613   1.909   0.000   0.035  983.65  569.11  331.00  238.11    0.00    0.13 -99.000 -99.000 -99.000 
 1989 211   112  29.06  38.90  22.90 -99.000   9.029   6.551   2.638   8.817   6.551   2.266   0.000   0.031  992.68  577.93  337.55  240.37    0.00    0.16 -99.000 -99.000 -99.000 
 1989 212   113  26.56  39.70  26.10 -99.000   8.732   6.332   2.580   8.543   6.332   2.211   0.000   0.027   1001.    586.    344.    243.      0.      0. -99.000 -99.000 -99.000 
 1989 213   114  27.97  41.40  23.10 -99.000   9.768   7.118   2.874   9.544   7.118   2.426   0.000   0.052   1011.    596.    351.    245.      0.      0. -99.000 -99.000 -99.000 
 1989 214   115  29.55  39.90  22.00 -99.000   9.537   6.958   2.834   9.308   6.958   2.350   0.000   0.047   1021.    605.    358.    247.      0.      0. -99.000 -99.000 -99.000 
 1989 215   116  25.02  37.90  23.90 -99.000   7.436   5.395   2.230   7.237   5.395   1.842   0.000   0.041   1028.    613.    363.    249.      0.      0. -99.000 -99.000 -99.000 
 1989 216   117  26.42  37.40  22.80 -99.000   7.591   5.518   2.300   7.365   5.518   1.847   0.000   0.073   1036.    620.    369.    251.      0.      0. -99.000 -99.000 -99.000 
 1989 217   118  28.03  38.50  23.90 -99.000   8.573   6.225   2.621   8.334   6.225   2.109   0.000   0.060   1044.    628.    375.    253.      0.      0. -99.000 -99.000 -99.000 
 1989 218   119  25.08  40.40  24.10 -99.000   8.387   6.071   2.587   8.148   6.071   2.077   0.000   0.049   1053.    636.    381.    255.      0.      1. -99.000 -99.000 -99.000 
 1989 219   120  27.47  38.80  24.20 -99.000   8.534   6.167   2.654   8.284   6.167   2.118   0.000   0.040   1061.    645.    387.    257.      0.      1. -99.000 -99.000 -99.000 
 1989 220   121  27.58  39.30  24.30 -99.000   8.762   6.357   2.747   8.540   6.357   2.183   0.000   0.033   1070.    653.    394.    260.      0.      1. -99.000 -99.000 -99.000 
 1989 221   122  25.31  37.80  23.50 -99.000   7.446   5.380   2.352   7.248   5.380   1.868   0.000   0.026   1077.    660.    399.    261.      0.      1. -99.000 -99.000 -99.000 
 1989 222   123  18.77  34.70  23.80 -99.000   4.751   3.439   1.512   4.633   3.439   1.194   0.000   0.020   1082.    665.    403.    263.      0.      1. -99.000 -99.000 -99.000 
 1989 223   124  23.38  37.60  22.20 -99.000   6.755   4.905   2.165   6.625   4.905   1.719   0.000   0.015   1089.    672.    407.    264.      0.      1. -99.000 -99.000 -99.000 
 1989 224   125  26.65  39.00  26.40 -99.000   8.461   6.134   2.728   8.301   6.134   2.168   0.000   0.012   1097.    680.    414.    266.      0.      1. -99.000 -99.000 -99.000 
 1989 225   126  28.23  41.70  25.20 -99.000  10.080   7.266   3.262   9.855   7.266   2.588   0.000   0.009   1107.    690.    421.    269.      0.      1. -99.000 -99.000 -99.000 
 1989 226   127  27.94  41.60  27.30 -99.000  10.038   7.245   3.266   9.829   7.245   2.584   0.000   0.008   1118.    700.    428.    272.      0.      1. -99.000 -99.000 -99.000 
 1989 227   128  27.77  41.40  25.20 -99.000   9.779   7.084   3.188   9.600   7.084   2.516   0.000   0.006   1127.    709.    435.    274.      0.      1. -99.000 -99.000 -99.000 
 1989 228   129  24.52  40.10  23.80 -99.000   8.049   5.779   2.637   7.858   5.779   2.078   0.000   0.005   1135.    717.    441.    276.      0.      1. -99.000 -99.000 -99.000 
 1989 229   130  27.34  38.60  22.00 -99.000   8.279   5.932   2.725   8.079   5.932   2.147   0.000   0.004   1144.    725.    447.    278.      0.      1. -99.000 -99.000 -99.000 
 1989 230   131  24.24  37.60  24.50 -99.000   7.085   5.099   2.343   6.942   5.099   1.844   0.000   0.003   1151.    732.    452.    280.      0.      1. -99.000 -99.000 -99.000 
 1989 231   132  27.31  39.10  22.00 -99.000   8.473   6.123   2.815   8.337   6.123   2.214   0.000   0.003   1159.    741.    458.    282.      0.      1. -99.000 -99.000 -99.000 
 1989 232   133  27.71  38.50  21.30 -99.000   8.294   5.919   2.767   8.093   5.919   2.174   0.000   0.002   1167.    749.    464.    285.      0.      1. -99.000 -99.000 -99.000 
 1989 233   134  27.03  37.40  19.90 -99.000   7.599   5.438   2.544   7.435   5.438   1.998   0.000   0.002   1175.    756.    469.    287.      0.      1. -99.000 -99.000 -99.000 
 1989 234   135  28.22  38.50  15.10 -99.000   8.100   5.805   2.721   7.940   5.805   2.135   0.000   0.002   1183.    764.    475.    289.      0.      1. -99.000 -99.000 -99.000 
 1989 235   136  28.49  39.40  15.20 -99.000   8.566   6.137   2.886   8.400   6.137   2.263   0.000   0.001   1192.    772.    481.    291.      0.      1. -99.000 -99.000 -99.000 
 1989 236   137  28.48  38.00  18.00 -99.000   8.130   5.824   2.747   7.977   5.824   2.153   0.000   0.001   1200.    780.    487.    293.      0.      1. -99.000 -99.000 -99.000 
 1989 237   138  28.36  38.30  17.70 -99.000   8.188   5.830   2.775   8.003   5.830   2.173   0.000   0.001   1208.    788.    493.    295.      0.      1. -99.000 -99.000 -99.000 
 1989 238   139  28.38  38.30  14.90 -99.000   8.028   5.741   2.729   7.874   5.738   2.136   0.000   0.001   1216.    796.    499.    297.      0.      1. -99.000 -99.000 -99.000 
 1989 239   140  27.64  38.20  17.70 -99.000   7.920   5.979   2.699   7.702   5.979   1.723   0.000   0.001   1224.    804.    505.    299.      0.      1. -99.000 -99.000 -99.000 
 1989 240   141  27.25  39.20  18.00 -99.000   8.208   6.193   2.804   6.929   6.193   0.736   0.000   0.001   1232.    811.    511.    300.      0.      1. -99.000 -99.000 -99.000 
 1989 241   142  26.78  41.00  17.70 -99.000   8.756   6.595   2.998   6.837   6.595   0.242   0.000   0.001   1241.    818.    518.    300.      0.      1. -99.000 -99.000 -99.000 
 1989 242   143  26.12  40.00  21.00 -99.000   8.332   6.251   2.859   6.423   6.251   0.171   0.000   0.001   1249.    824.    524.    300.      0.      1. -99.000 -99.000 -99.000 
 1989 243   144  25.77  38.70  21.90 -99.000   7.770   5.846   2.672   5.980   5.846   0.134   0.000   0.001   1257.    830.    530.    300.      0.      1. -99.000 -99.000 -99.000 
 1989 244   145  25.89  40.10  20.80 -99.000   8.285   6.233   2.856   6.348   6.233   0.115   0.000   0.001   1265.    836.    536.    301.      0.      1. -99.000 -99.000 -99.000 
 1989 245   146  15.52  35.00  22.80 -99.000   3.883   2.910   1.341   3.012   2.910   0.102   0.000   0.000   1269.    839.    539.    301.      0.      1. -99.000 -99.000 -99.000 
 1989 246   147  16.85  32.20  20.70 -99.000   4.036   2.999   1.397   3.090   2.999   0.090   0.000   0.000   1273.    843.    542.    301.      0.      1. -99.000 -99.000 -99.000 
 1989 247   148  24.90  38.20  21.00 -99.000   7.340   5.272   2.545   7.122   5.272   1.850   0.000   0.133   1281.    850.    547.    303.      0.      1. -99.000 -99.000 -99.000 
 1989 248   149  25.81  41.10  21.20 -99.000   8.719   6.259   3.028   8.524   6.259   2.266   0.000   0.094   1289.    858.    553.    305.      0.      1. -99.000 -99.000 -99.000 
 1989 249   150  24.87  40.70  22.80 -99.000   8.316   5.947   2.891   8.103   5.917   2.186   0.000   0.066   1298.    866.    559.    307.      0.      1. -99.000 -99.000 -99.000 
 1989 250   151  25.72  40.00  22.00 -99.000   8.270   5.868   2.880   8.063   5.868   2.195   0.000   0.046   1306.    874.    565.    309.      0.      1. -99.000 -99.000 -99.000 
 1989 251   152  26.13  36.80  20.70 -99.000   7.102   5.261   2.476   5.848   5.261   0.587   0.000   0.032   1313.    880.    570.    310.      0.      1. -99.000 -99.000 -99.000 
 1989 252   153  26.28  37.70  13.90 -99.000   7.138   5.320   2.492   5.386   5.320   0.066   0.000   0.023   1320.    886.    576.    310.      0.      1. -99.000 -99.000 -99.000 
 1989 253   154  26.25  37.90  15.10 -99.000   7.262   5.401   2.539   5.457   5.401   0.056   0.000   0.016   1327.    891.    581.    310.      0.      1. -99.000 -99.000 -99.000 
 1989 254   155  26.00  37.20  15.50 -99.000   6.959   5.139   2.435   5.187   5.139   0.048   0.000   0.011   1334.    896.    586.    310.      0.      1. -99.000 -99.000 -99.000 
 1989 255   156  25.33  36.90  14.80 -99.000   6.641   4.899   2.348   4.941   4.899   0.042   0.000   0.008   1341.    901.    591.    310.      0.      1. -99.000 -99.000 -99.000 
 1989 256   157  24.81  36.00  13.60 -99.000   6.146   4.534   2.194   4.399   4.363   0.036   0.000   0.006   1347.    906.    595.    310.      0.      1. -99.000 -99.000 -99.000 
 1989 257   158  24.89  38.20  13.00 -99.000   6.883   5.062   2.482   3.481   3.450   0.031   0.000   0.005   1354.    909.    599.    310.      0.      1. -99.000 -99.000 -99.000 
 1989 258   159  24.25  39.20  13.40 -99.000   7.062   5.164   2.571   2.995   2.968   0.027   0.000   0.005   1361.    912.    602.    310.      0.      1. -99.000 -99.000 -99.000 
 1989 259   160  22.64  40.70  19.40 -99.000   7.365   5.368   2.707   2.670   2.647   0.024   0.000   0.004   1368.    915.    605.    310.      0.      1. -99.000 -99.000 -99.000 
 1989 260   161  20.04  36.60  19.90 -99.000   5.347   3.819   1.984   2.456   2.435   0.021   0.000   0.004   1374.    917.    607.    310.      0.      1. -99.000 -99.000 -99.000 
 1989 261   162  24.20  36.10  16.40 -99.000   6.136   4.372   2.298   2.352   2.334   0.018   0.000   0.004   1380.    920.    609.    310.      0.      1. -99.000 -99.000 -99.000 
 1989 262   163  24.00  34.00  13.60 -99.000   5.552   3.904   2.099   2.241   2.225   0.016   0.000   0.004   1386.    922.    612.    310.      0.      1. -99.000 -99.000 -99.000 
 1989 263   164  24.34  31.00  10.30 -99.000   5.308   3.764   2.025   2.182   2.167   0.015   0.000   0.003   1391.    924.    614.    310.      0.      1. -99.000 -99.000 -99.000 
