*INFO DETAIL FILE

******************************************************************************

*DSSAT Cropping System Model Ver. 4.8.2.006 -  APR 10, 2025 22:06:00

*RUN   1        : Control - 350 ppm         CRGRO048 AZMC8901    1
 MODEL          : CRGRO048 - Cotton
 EXPERIMENT     : AZMC8901 CO 1989 FACE EXPERIMENT
 DATA PATH      :
 TREATMENT  1   : Control - 350 ppm         CRGRO048
  

 CSM     YEAR DOY = 1989 100
 RNMODE = A                                                                    
 PATHEX =                                                                      
 FILEX  = AZMC8901.COX                                                         
 FILEB  =                                                                      
 FILEIO = DSSAT48.INP                                                          
 MODEL  = CRGRO048                                                             
 TRTNUM =     1                                                                

 SOILDYN  YEAR DOY = 1989 100
 The soil file has missing or invalid data.                                    
 Default values have been used for these variables:                            
   ADCOEF, SAEA                                                                
 These defaults may or may not be important to your results.                   

 RETC  YEAR DOY = 1989 100
 Soil RETC parameters:                                                         
  LYR DS  SWCN   WCR    Hb Lambd  Alpha     m     n Texture                    
   1   5  4.30 0.077   4.8 0.174  0.010 0.170 1.205 ClayLoam                   
   2  15  4.30 0.077   4.2 0.175  0.011 0.172 1.208 ClayLoam                   
   3  30  4.30 0.076   4.4 0.178  0.011 0.174 1.211 ClayLoam                   
   4  40  4.30 0.075   4.7 0.179  0.010 0.174 1.211 ClayLoam                   
   5  50  4.30 0.075   4.7 0.179  0.010 0.174 1.211 ClayLoam                   
   6  60  4.30 0.075   8.1 0.179  0.007 0.172 1.208 ClayLoam                   
   7  70  4.30 0.075   8.1 0.179  0.007 0.172 1.208 ClayLoam                   
   8  90  4.30 0.085   9.4 0.197  0.006 0.186 1.229 SandClayLoam               
   9 110  4.30 0.073   8.4 0.224  0.006 0.206 1.260 SandClayLoam               
  10 120  4.30 0.073   8.4 0.224  0.006 0.206 1.260 SandClayLoam               
  11 130  4.30 0.073   8.4 0.224  0.006 0.206 1.260 SandClayLoam               
  12 150  4.30 0.059   1.5 0.185  0.035 0.172 1.208 SandyLoam                  
  13 170  4.30 0.059   1.5 0.185  0.035 0.172 1.208 SandyLoam                  
  14 190  4.30 0.055   1.4 0.190  0.038 0.177 1.216 SandyLoam                  
  15 210  4.30 0.055   1.4 0.190  0.038 0.177 1.216 SandyLoam                  

 SETPM     YEAR DOY = 1989 100
 Simulating flat surface with no plastic mulch.                                                                               

 SOILDYN  YEAR DOY = 1989 100
 Soil ID: AZMC920001                                                           
 TRIX CLAY LOAM                                                                
 FINE-LOAMY, MIXED (CALCAREOUS), HYPERTHERMIC TYPIC                            
   SALB SWCON    CN  DMOD  SLPF SMPX                                           
   0.20  0.29  70.0  1.00  0.90 -99                                            
 Soil layer distribution method: 2                                             
      DS DLAYR    LL   DUL   SAT  Root    BD    OC  CLAY  SILT  SAND           
 LYR  cm    cm  frac  frac  frac  Grow g/cm3     %     %     %     %    pH     
   1   5     5 0.202 0.320 0.417 1.000  1.31  0.41  34.0  31.0  35.0   8.5     
   2  15    10 0.201 0.319 0.424 0.741  1.27  0.35  34.0  31.0  35.0   8.5     
   3  30    15 0.199 0.319 0.424 0.607  1.27  0.27  34.0  31.0  35.0   8.5     
   4  40    10 0.198 0.318 0.419 0.449  1.30  0.24  34.0  31.0  35.0   8.6     
   5  50    10 0.198 0.318 0.419 0.449  1.30  0.24  34.0  31.0  35.0   8.6     
   6  60    10 0.198 0.318 0.387 0.301  1.47  0.16  34.0  31.0  35.0   8.6     
   7  70    10 0.198 0.318 0.387 0.301  1.47  0.16  34.0  31.0  35.0   8.6     
   8  90    20 0.186 0.299 0.359 0.183  1.57  0.30  30.0  25.0  45.0   8.6     
   9 110    20 0.159 0.275 0.347 0.100  1.57  0.10  25.0  20.0  55.0   8.6     
  10 120    10 0.159 0.275 0.347 0.100  1.57  0.10  25.0  20.0  55.0   8.6     
  11 130    10 0.159 0.275 0.347 0.100  1.57  0.10  25.0  20.0  55.0   8.6     
  12 150    20 0.136 0.254 0.336 0.055  1.57  0.67  20.0  20.0  60.0   8.6     
  13 170    20 0.136 0.254 0.336 0.000  1.57  0.67  20.0  20.0  60.0   8.6     
  14 190    20 0.128 0.244 0.331 0.000  1.57  0.59  18.0  17.0  65.0   8.6     
  15 210    20 0.128 0.244 0.331 0.000  1.57  0.59  18.0  17.0  65.0   8.6     

 SOILDYN  YEAR DOY = 1989 100
 Additional soil properties                                                    
                Convert                                                        
    Cation Adsrp  ppm /  KSAT  SLCF                                            
   L  Exch  Coef  kg/ha  cm/h     %                                            
   1  25.5   0.0   1.53   4.3   0.0                                            
   2  25.5   0.0   0.79   4.3   0.0                                            
   3  25.5   0.0   0.52   4.3   0.0                                            
   4  24.5   0.0   0.77   4.3   0.0                                            
   5  24.5   0.0   0.77   4.3   0.0                                            
   6  23.5   0.0   0.68   4.3   0.0                                            
   7  23.5   0.0   0.68   4.3   0.0                                            
   8  20.7   0.0   0.32   4.3   0.0                                            
   9  17.3   0.0   0.32   4.3   0.0                                            
  10  17.3   0.0   0.64   4.3   0.0                                            
  11  17.3   0.0   0.64   4.3   0.0                                            
  12  13.8   0.0   0.32   4.3   0.0                                            
  13  13.8   0.0   0.32   4.3   0.0                                            
  14  12.4   0.0   0.32   4.3   0.0                                            
  15  12.4   0.0   0.32   4.3   0.0                                            

 IPWTH   YEAR DOY = 1989 100
 C:\DSSAT48\Weather\AZMC8832.WTH                                               
 Found daily weather data headers for:                                         
   SRAD           Col   9 -  15                                                
   TMAX           Col  17 -  23                                                
   TMIN           Col  25 -  31                                                
   RAIN           Col  33 -  39                                                
   DEWP           Col  41 -  47                                                
   WIND           Col  49 -  55                                                

 CO2VAL  YEAR DOY = 1989 100
  781 CO2 data points read from file.                                          
 C:\DSSAT48\StandardData\CO2048.WDA                                            

 ENDRUN  YEAR DOY = 1989 263
 Normal end of run        1                                                    

******************************************************************************

*DSSAT Cropping System Model Ver. 4.8.2.006 -  APR 10, 2025 22:06:01

*RUN   2        : CO2 Enrichment - 550 ppm  CRGRO048 AZMC8901    2
 MODEL          : CRGRO048 - Cotton
 EXPERIMENT     : AZMC8901 CO 1989 FACE EXPERIMENT
 DATA PATH      :
 TREATMENT  2   : CO2 Enrichment - 550 ppm  CRGRO048
  

 CSM     YEAR DOY = 1989 100
 RNMODE = A                                                                    
 PATHEX =                                                                      
 FILEX  = AZMC8901.COX                                                         
 FILEB  =                                                                      
 FILEIO = DSSAT48.INP                                                          
 MODEL  = CRGRO048                                                             
 TRTNUM =     2                                                                

 SOILDYN  YEAR DOY = 1989 100
 The soil file has missing or invalid data.                                    
 Default values have been used for these variables:                            
   ADCOEF, SAEA                                                                
 These defaults may or may not be important to your results.                   

 RETC  YEAR DOY = 1989 100
 Soil RETC parameters:                                                         
  LYR DS  SWCN   WCR    Hb Lambd  Alpha     m     n Texture                    
   1   5  4.30 0.077   4.8 0.174  0.010 0.170 1.205 ClayLoam                   
   2  15  4.30 0.077   4.2 0.175  0.011 0.172 1.208 ClayLoam                   
   3  30  4.30 0.076   4.4 0.178  0.011 0.174 1.211 ClayLoam                   
   4  40  4.30 0.075   4.7 0.179  0.010 0.174 1.211 ClayLoam                   
   5  50  4.30 0.075   4.7 0.179  0.010 0.174 1.211 ClayLoam                   
   6  60  4.30 0.075   8.1 0.179  0.007 0.172 1.208 ClayLoam                   
   7  70  4.30 0.075   8.1 0.179  0.007 0.172 1.208 ClayLoam                   
   8  90  4.30 0.085   9.4 0.197  0.006 0.186 1.229 SandClayLoam               
   9 110  4.30 0.073   8.4 0.224  0.006 0.206 1.260 SandClayLoam               
  10 120  4.30 0.073   8.4 0.224  0.006 0.206 1.260 SandClayLoam               
  11 130  4.30 0.073   8.4 0.224  0.006 0.206 1.260 SandClayLoam               
  12 150  4.30 0.059   1.5 0.185  0.035 0.172 1.208 SandyLoam                  
  13 170  4.30 0.059   1.5 0.185  0.035 0.172 1.208 SandyLoam                  
  14 190  4.30 0.055   1.4 0.190  0.038 0.177 1.216 SandyLoam                  
  15 210  4.30 0.055   1.4 0.190  0.038 0.177 1.216 SandyLoam                  

 SETPM     YEAR DOY = 1989 100
 Simulating flat surface with no plastic mulch.                                                                               

 SOILDYN  YEAR DOY = 1989 100
 Soil ID: AZMC920001                                                           
 TRIX CLAY LOAM                                                                
 FINE-LOAMY, MIXED (CALCAREOUS), HYPERTHERMIC TYPIC                            
   SALB SWCON    CN  DMOD  SLPF SMPX                                           
   0.20  0.29  70.0  1.00  0.90 -99                                            
 Soil layer distribution method: 2                                             
      DS DLAYR    LL   DUL   SAT  Root    BD    OC  CLAY  SILT  SAND           
 LYR  cm    cm  frac  frac  frac  Grow g/cm3     %     %     %     %    pH     
   1   5     5 0.202 0.320 0.417 1.000  1.31  0.41  34.0  31.0  35.0   8.5     
   2  15    10 0.201 0.319 0.424 0.741  1.27  0.35  34.0  31.0  35.0   8.5     
   3  30    15 0.199 0.319 0.424 0.607  1.27  0.27  34.0  31.0  35.0   8.5     
   4  40    10 0.198 0.318 0.419 0.449  1.30  0.24  34.0  31.0  35.0   8.6     
   5  50    10 0.198 0.318 0.419 0.449  1.30  0.24  34.0  31.0  35.0   8.6     
   6  60    10 0.198 0.318 0.387 0.301  1.47  0.16  34.0  31.0  35.0   8.6     
   7  70    10 0.198 0.318 0.387 0.301  1.47  0.16  34.0  31.0  35.0   8.6     
   8  90    20 0.186 0.299 0.359 0.183  1.57  0.30  30.0  25.0  45.0   8.6     
   9 110    20 0.159 0.275 0.347 0.100  1.57  0.10  25.0  20.0  55.0   8.6     
  10 120    10 0.159 0.275 0.347 0.100  1.57  0.10  25.0  20.0  55.0   8.6     
  11 130    10 0.159 0.275 0.347 0.100  1.57  0.10  25.0  20.0  55.0   8.6     
  12 150    20 0.136 0.254 0.336 0.055  1.57  0.67  20.0  20.0  60.0   8.6     
  13 170    20 0.136 0.254 0.336 0.000  1.57  0.67  20.0  20.0  60.0   8.6     
  14 190    20 0.128 0.244 0.331 0.000  1.57  0.59  18.0  17.0  65.0   8.6     
  15 210    20 0.128 0.244 0.331 0.000  1.57  0.59  18.0  17.0  65.0   8.6     

 SOILDYN  YEAR DOY = 1989 100
 Additional soil properties                                                    
                Convert                                                        
    Cation Adsrp  ppm /  KSAT  SLCF                                            
   L  Exch  Coef  kg/ha  cm/h     %                                            
   1  25.5   0.0   1.53   4.3   0.0                                            
   2  25.5   0.0   0.79   4.3   0.0                                            
   3  25.5   0.0   0.52   4.3   0.0                                            
   4  24.5   0.0   0.77   4.3   0.0                                            
   5  24.5   0.0   0.77   4.3   0.0                                            
   6  23.5   0.0   0.68   4.3   0.0                                            
   7  23.5   0.0   0.68   4.3   0.0                                            
   8  20.7   0.0   0.32   4.3   0.0                                            
   9  17.3   0.0   0.32   4.3   0.0                                            
  10  17.3   0.0   0.64   4.3   0.0                                            
  11  17.3   0.0   0.64   4.3   0.0                                            
  12  13.8   0.0   0.32   4.3   0.0                                            
  13  13.8   0.0   0.32   4.3   0.0                                            
  14  12.4   0.0   0.32   4.3   0.0                                            
  15  12.4   0.0   0.32   4.3   0.0                                            

 ENDRUN  YEAR DOY = 1989 263
 Normal end of run        2                                                    
