*GROWTH ASPECTS OUTPUT FILE

*DSSAT Cropping System Model Ver. 4.8.2.006 -  APR 10, 2025 22:06:00

*RUN   1        : Control - 350 ppm         CRGRO048 AZMC8901    1
 MODEL          : CRGRO048 - Cotton
 EXPERIMENT     : AZMC8901 CO 1989 FACE EXPERIMENT
 DATA PATH      :
 TREATMENT  1   : Control - 350 ppm         CRGRO048
  
!                                                                                                                                                                                                                                                    Root Dens. (cm/cm3) by soil depth (cm):
!                                                                                                                                                                                                                                                    0-5    5-15   15-30   30-40   40-50   50-60   60-70   70-90  90-110 110-210
@YEAR DOY   DAS   DAP   L#SD   GSTD   LAID   LWAD   SWAD   GWAD   RWAD   VWAD   CWAD   G#AD    GWGD   HIAD   PWAD   P#AD   WSPD   WSGD   NSTD  PST1A  PST2A   KSTD   EWSD    LN%D   SH%D   HIPD   PWDD   PWTD   SLAD   CHTD   CWID   NWAD   RDPD    RL1D    RL2D    RL3D    RL4D    RL5D    RL6D    RL7D    RL8D    RL9D   RL10D    SNW0C   SNW1C
 1989 107     8     0    0.0      0  0.000      0      0      0      0      0      0      0     0.0  0.000      0      0  0.000  0.000  0.000  0.000  0.000  0.000  0.000    0.00   0.00   0.00      0      0    0.0   0.00   0.00    0.0   0.00    0.00    0.00    0.00    0.00    0.00    0.00    0.00    0.00    0.00    0.00        0       0
 1989 108     9     1    0.0      0  0.000      0      0      0      0      0      0      0     0.0  0.000      0      0  0.000  0.000  0.000  0.000  0.000  0.000  0.000    0.00   0.00   0.00      0      0    0.0   0.00   0.00    0.0   0.00    0.00    0.00    0.00    0.00    0.00    0.00    0.00    0.00    0.00    0.00        0       0
 1989 109    10     2    0.0      0  0.000      0      0      0      0      0      0      0     0.0  0.000      0      0  0.000  0.000  0.000  0.000  0.000  0.000  0.000    0.00   0.00   0.00      0      0    0.0   0.00   0.00    0.0   0.00    0.00    0.00    0.00    0.00    0.00    0.00    0.00    0.00    0.00    0.00        0       0
 1989 110    11     3    0.0      0  0.000      0      0      0      0      0      0      0     0.0  0.000      0      0  0.000  0.000  0.000  0.000  0.000  0.000  0.000    0.00   0.00   0.00      0      0    0.0   0.00   0.00    0.0   0.00    0.00    0.00    0.00    0.00    0.00    0.00    0.00    0.00    0.00    0.00        0       0
 1989 111    12     4    0.0      0  0.000      0      0      0      0      0      0      0     0.0  0.000      0      0  0.000  0.000  0.000  0.000  0.000  0.000  0.000    0.00   0.00   0.00      0      0    0.0   0.00   0.00    0.0   0.00    0.00    0.00    0.00    0.00    0.00    0.00    0.00    0.00    0.00    0.00        0       0
 1989 112    13     5    0.0      0  0.000      0      0      0      0      0      0      0     0.0  0.000      0      0  0.000  0.000  0.000  0.000  0.000  0.000  0.000    0.00   0.00   0.00      0      0    0.0   0.00   0.00    0.0   0.00    0.00    0.00    0.00    0.00    0.00    0.00    0.00    0.00    0.00    0.00        0       0
 1989 113    14     6    0.0      0  0.000      0      0      0      0      0      0      0     0.0  0.000      0      0  0.000  0.000  0.000  0.000  0.000  0.000  0.000    0.00   0.00   0.00      0      0    0.0   0.00   0.00    0.0   0.00    0.00    0.00    0.00    0.00    0.00    0.00    0.00    0.00    0.00    0.00        0       0
 1989 114    15     7    0.0      0  0.000      0      0      0      0      0      0      0     0.0  0.000      0      0  0.000  0.000  0.000  0.000  0.000  0.000  0.000    0.00   0.00   0.00      0      0    0.0   0.00   0.00    0.0   0.00    0.00    0.00    0.00    0.00    0.00    0.00    0.00    0.00    0.00    0.00        0       0
 1989 115    16     8    0.0      0  0.000      0      0      0      0      0      0      0     0.0  0.000      0      0  0.000  0.000  0.000  0.000  0.000  0.000  0.000    0.00   0.00   0.00      0      0    0.0   0.00   0.00    0.0   0.00    0.00    0.00    0.00    0.00    0.00    0.00    0.00    0.00    0.00    0.00        0       0
 1989 116    17     9    0.0      0  0.000      0      0      0      0      0      0      0     0.0  0.000      0      0  0.000  0.000  0.000  0.000  0.000  0.000  0.000    0.00   0.00   0.00      0      0    0.0   0.00   0.00    0.0   0.00    0.00    0.00    0.00    0.00    0.00    0.00    0.00    0.00    0.00    0.00        0       0
 1989 117    18    10    0.0      0  0.009      6      1      0      3      7      7      0     0.0  0.000      0      0  0.000  0.000  0.000  0.000  0.000  0.000  0.000    4.48   0.00   0.00      0      0  150.1   0.03   0.03    0.0   0.26    0.02    0.02    0.01    0.00    0.00    0.00    0.00    0.00    0.00    0.00        0       0
 1989 118    19    11    0.1      0  0.009      6      1      0      3      7      7      0     0.0  0.000      0      0  0.000  0.000  0.000  0.000  0.000  0.000  0.000    4.49   0.00   0.00      0      0  148.0   0.03   0.03    0.0   0.27    0.02    0.02    0.01    0.00    0.00    0.00    0.00    0.00    0.00    0.00        0       0
 1989 119    20    12    0.2      0  0.010      7      1      0      4      8      8      0     0.0  0.000      0      0  0.000  0.000  0.000  0.000  0.000  0.000  0.000    4.49   0.00   0.00      0      0  146.2   0.03   0.03    0.0   0.28    0.02    0.02    0.01    0.00    0.00    0.00    0.00    0.00    0.00    0.00        0       0
 1989 120    21    13    0.4      0  0.011      7      1      0      4      8      8      0     0.0  0.000      0      0  0.000  0.000  0.000  0.000  0.000  0.000  0.000    4.49   0.00   0.00      0      0  145.6   0.03   0.03    0.0   0.30    0.02    0.02    0.01    0.00    0.00    0.00    0.00    0.00    0.00    0.00        0       0
 1989 121    22    14    0.6      0  0.012      8      1      0      4      9      9      0     0.0  0.000      0      0  0.000  0.000  0.000  0.000  0.000  0.000  0.000    4.50   0.00   0.00      0      0  146.1   0.04   0.04    0.0   0.31    0.02    0.02    0.01    0.00    0.00    0.00    0.00    0.00    0.00    0.00        0       0
 1989 122    23    15    0.7      0  0.014      9      1      0      5     11     11      0     0.0  0.000      0      0  0.000  0.000  0.000  0.000  0.000  0.000  0.000    4.50   0.00   0.00      0      0  146.4   0.04   0.04    0.0   0.33    0.02    0.02    0.02    0.00    0.00    0.00    0.00    0.00    0.00    0.00        0       0
 1989 123    24    16    0.9      0  0.016     11      1      0      5     12     12      0     0.0  0.000      0      0  0.000  0.000  0.000  0.000  0.000  0.000  0.000    4.50   0.00   0.00      0      0  147.6   0.04   0.04    0.0   0.35    0.02    0.02    0.02    0.00    0.00    0.00    0.00    0.00    0.00    0.00        0       0
 1989 124    25    17    1.1      0  0.018     12      1      0      5     14     14      0     0.0  0.000      0      0  0.000  0.000  0.000  0.000  0.000  0.000  0.000    4.50   0.00   0.00      0      0  148.5   0.05   0.04    0.0   0.37    0.02    0.03    0.02    0.00    0.00    0.00    0.00    0.00    0.00    0.00        0       0
 1989 125    26    18    1.4      0  0.021     14      2      0      6     15     15      0     0.0  0.000      0      0  0.000  0.000  0.000  0.000  0.000  0.000  0.000    4.51   0.00   0.00      0      0  150.2   0.05   0.05    0.0   0.39    0.02    0.03    0.02    0.00    0.00    0.00    0.00    0.00    0.00    0.00        0       0
 1989 126    27    19    1.6      0  0.024     16      2      0      7     18     18      0     0.0  0.000      0      0  0.000  0.000  0.000  0.000  0.000  0.000  0.000    4.51   0.00   0.00      0      0  155.1   0.06   0.05    0.0   0.40    0.02    0.03    0.02    0.00    0.00    0.00    0.00    0.00    0.00    0.00        0       0
 1989 127    28    20    1.9      0  0.027     18      2      0      7     20     20      0     0.0  0.000      0      0  0.000  0.000  0.000  0.000  0.000  0.000  0.000    4.51   0.00   0.00      0      0  154.5   0.07   0.06    0.0   0.42    0.02    0.03    0.02    0.01    0.00    0.00    0.00    0.00    0.00    0.00        0       0
 1989 128    29    21    2.1      0  0.032     20      2      0      8     23     23      0     0.0  0.000      0      0  0.000  0.000  0.000  0.000  0.000  0.000  0.000    4.51   0.00   0.00      0      0  155.8   0.07   0.06    0.0   0.44    0.02    0.04    0.03    0.01    0.00    0.00    0.00    0.00    0.00    0.00        0       0
 1989 129    30    22    2.4      0  0.038     24      3      0      9     26     26      0     0.0  0.000      0      0  0.000  0.000  0.000  0.000  0.000  0.000  0.000    4.37   0.00   0.00      0      0  161.4   0.08   0.07    0.0   0.46    0.03    0.04    0.03    0.01    0.00    0.00    0.00    0.00    0.00    0.00        0       0
 1989 130    31    23    2.5      0  0.042     26      3      0     10     29     29      0     0.0  0.000      0      0  0.000  0.000  0.000  0.000  0.000  0.000  0.000    4.45   0.00   0.00      0      0  160.7   0.08   0.07    0.0   0.48    0.03    0.04    0.03    0.01    0.00    0.00    0.00    0.00    0.00    0.00        0       0
 1989 131    32    24    2.7      0  0.045     28      4      0     12     32     32      0     0.0  0.000      0      0  0.000  0.000  0.000  0.000  0.000  0.000  0.000    4.47   0.00   0.00      0      0  157.6   0.09   0.08    0.0   0.49    0.04    0.05    0.04    0.01    0.01    0.00    0.00    0.00    0.00    0.00        0       0
 1989 132    33    25    2.8      0  0.048     31      4      0     13     35     35      0     0.0  0.000      0      0  0.000  0.000  0.000  0.000  0.000  0.000  0.000    4.48   0.00   0.00      0      0  155.2   0.09   0.08    0.0   0.50    0.04    0.05    0.04    0.02    0.01    0.00    0.00    0.00    0.00    0.00        0       0
 1989 133    34    26    2.9      0  0.051     33      5      0     14     38     38      0     0.0  0.000      0      0  0.000  0.000  0.000  0.000  0.000  0.000  0.000    4.48   0.00   0.00      0      0  153.8   0.09   0.08    0.0   0.51    0.04    0.06    0.04    0.02    0.01    0.00    0.00    0.00    0.00    0.00        0       1
 1989 134    35    27    3.1      0  0.054     36      6      0     16     41     41      0     0.0  0.000      0      0  0.000  0.000  0.000  0.000  0.000  0.000  0.000    4.49   0.00   0.00      0      0  152.0   0.10   0.08    0.0   0.52    0.04    0.06    0.05    0.02    0.02    0.00    0.00    0.00    0.00    0.00        0       1
 1989 135    36    28    3.2      0  0.058     38      7      0     19     45     45      0     0.0  0.000      0      0  0.000  0.000  0.000  0.000  0.000  0.000  0.000    4.49   0.00   0.00      0      0  151.8   0.10   0.08    0.0   0.54    0.04    0.07    0.06    0.03    0.02    0.00    0.00    0.00    0.00    0.00        0       1
 1989 136    37    29    3.3      0  0.060     40      8      0     22     48     48      0     0.0  0.000      0      0  0.000  0.000  0.000  0.000  0.000  0.000  0.000    4.49   0.00   0.00      0      0  151.9   0.10   0.09    0.0   0.55    0.04    0.08    0.06    0.04    0.03    0.00    0.00    0.00    0.00    0.00        0       1
 1989 137    38    30    3.4      0  0.063     42      9      0     24     52     52      0     0.0  0.000      0      0  0.000  0.000  0.000  0.000  0.000  0.000  0.000    4.49   0.00   0.00      0      0  150.4   0.10   0.09    0.0   0.56    0.04    0.09    0.07    0.04    0.03    0.01    0.00    0.00    0.00    0.00        0       1
 1989 138    39    31    3.6      0  0.068     45     12      0     28     57     57      0     0.0  0.000      0      0  0.000  0.000  0.000  0.000  0.000  0.000  0.000    4.50   0.00   0.00      0      0  150.5   0.11   0.09    0.0   0.58    0.04    0.10    0.08    0.05    0.04    0.01    0.00    0.00    0.00    0.00        0       1
 1989 139    40    32    3.8      0  0.072     48     14      0     32     62     62      0     0.0  0.000      0      0  0.000  0.000  0.000  0.000  0.000  0.000  0.000    4.50   0.00   0.00      0      0  150.5   0.11   0.09    0.0   0.60    0.05    0.11    0.09    0.05    0.05    0.01    0.00    0.00    0.00    0.00        0       1
 1989 140    41    33    4.0      0  0.076     51     17      0     37     67     67      0     0.0  0.000      0      0  0.000  0.000  0.000  0.000  0.000  0.000  0.000    4.50   0.00   0.00      0      0  150.2   0.12   0.10    0.0   0.61    0.05    0.13    0.10    0.06    0.06    0.02    0.00    0.00    0.00    0.00        0       1
 1989 141    42    34    4.1      0  0.085     56     18      0     40     75     75      0     0.0  0.000      0      0  0.000  0.000  0.000  0.000  0.000  0.000  0.000    4.51   0.00   0.00      0      0  151.5   0.13   0.10    0.0   0.63    0.05    0.14    0.11    0.07    0.06    0.03    0.00    0.00    0.00    0.00        0       1
 1989 142    43    35    4.3      0  0.095     62     21      0     44     83     83      0     0.0  0.000      0      0  0.000  0.000  0.000  0.000  0.000  0.000  0.000    4.51   0.00   0.00      0      0  152.5   0.13   0.11    0.0   0.65    0.05    0.15    0.12    0.08    0.07    0.03    0.00    0.00    0.00    0.00        0       2
 1989 143    44    36    4.5      0  0.104     68     24      0     48     92     92      0     0.0  0.000      0      0  0.000  0.000  0.000  0.000  0.000  0.000  0.000    4.51   0.00   0.00      0      0  152.1   0.14   0.11    0.0   0.67    0.05    0.16    0.13    0.08    0.08    0.04    0.01    0.00    0.00    0.00        0       2
 1989 144    45    37    4.7      0  0.115     75     28      0     54    103    103      0     0.0  0.000      0      0  0.000  0.000  0.000  0.000  0.000  0.000  0.000    4.51   0.00   0.00      0      0  153.2   0.15   0.12    0.0   0.69    0.05    0.18    0.14    0.09    0.09    0.04    0.01    0.00    0.00    0.00        0       2
 1989 145    46    38    4.8      0  0.123     81     31      0     59    112    112      0     0.0  0.000      0      0  0.000  0.000  0.000  0.000  0.000  0.000  0.000    4.51   0.00   0.00      0      0  152.1   0.16   0.13    0.0   0.71    0.07    0.19    0.15    0.10    0.09    0.05    0.02    0.00    0.00    0.00        0       3
 1989 146    47    39    4.9      0  0.132     87     36      0     66    123    123      0     0.0  0.000      0      0  0.000  0.000  0.000  0.000  0.000  0.000  0.000    4.52   0.00   0.00      0      0  151.8   0.17   0.13    0.0   0.73    0.07    0.21    0.17    0.11    0.11    0.06    0.03    0.00    0.00    0.00        0       3
 1989 147    48    40    5.1      0  0.147     97     39      0     71    136    136      0     0.0  0.000      0      0  0.000  0.000  0.000  0.000  0.000  0.000  0.000    4.52   0.00   0.00      0      0  151.7   0.18   0.14    0.0   0.74    0.07    0.22    0.18    0.12    0.11    0.06    0.03    0.00    0.00    0.00        0       3
 1989 148    49    41    5.2      0  0.164    108     44      0     77    152    152      0     0.0  0.000      0      0  0.000  0.000  0.000  0.000  0.000  0.000  0.000    4.52   0.00   0.00      0      0  152.0   0.18   0.15    0.0   0.76    0.07    0.24    0.19    0.13    0.12    0.07    0.04    0.00    0.00    0.00        0       4
 1989 149    50    42    5.4      0  0.184    121     48      0     83    169    169      0     0.0  0.000      0      0  0.000  0.000  0.000  0.000  0.000  0.000  0.000    4.52   0.00   0.00      0      0  152.5   0.19   0.15    0.0   0.78    0.07    0.25    0.21    0.14    0.13    0.07    0.05    0.00    0.00    0.00        0       4
 1989 150    51    43    5.5      0  0.199    132     53      0     89    185    185      0     0.0  0.000      0      0  0.000  0.000  0.000  0.000  0.000  0.000  0.000    4.52   0.00   0.00      0      0  150.8   0.20   0.16    0.0   0.80    0.07    0.27    0.22    0.15    0.14    0.08    0.05    0.01    0.00    0.00        0       5
 1989 151    52    44    5.6      0  0.213    143     57      0     94    200    200      0     0.0  0.000      0      0  0.000  0.000  0.000  0.000  0.000  0.000  0.000    4.52   0.00   0.00      0      0  149.1   0.21   0.16    0.0   0.81    0.07    0.28    0.23    0.16    0.15    0.09    0.06    0.01    0.00    0.00        0       5
 1989 152    53    45    5.8      0  0.233    157     64      0    102    221    221      0     0.0  0.000      0      0  0.000  0.000  0.000  0.000  0.000  0.000  0.000    4.52   0.00   0.00      0      0  148.5   0.21   0.17    0.0   0.83    0.07    0.30    0.25    0.17    0.16    0.10    0.07    0.01    0.00    0.00        0       5
 1989 153    54    46    5.9      0  0.254    172     71      0    109    243    243      0     0.0  0.000      0      0  0.000  0.000  0.000  0.000  0.000  0.000  0.000    4.52   0.00   0.00      0      0  147.8   0.22   0.18    0.0   0.85    0.07    0.32    0.26    0.18    0.18    0.10    0.08    0.02    0.00    0.00        0       6
 1989 154    55    47    6.0      0  0.280    189     79      0    118    268    268      0     0.0  0.000      0      0  0.000  0.000  0.000  0.000  0.000  0.000  0.000    4.52   0.00   0.00      0      0  148.1   0.23   0.18    0.0   0.87    0.07    0.35    0.28    0.20    0.19    0.11    0.09    0.02    0.00    0.00        0       7
 1989 155    56    48    6.2      0  0.308    207     89      0    128    296    296      0     0.0  0.000      0      0  0.000  0.000  0.000  0.000  0.000  0.000  0.000    4.52   0.00   0.00      0      0  148.4   0.24   0.19    0.0   0.89    0.07    0.37    0.30    0.21    0.21    0.12    0.10    0.03    0.00    0.00        0       7
 1989 156    57    49    6.3      0  0.338    227    100      0    138    327    327      0     0.0  0.000      0      0  0.000  0.000  0.000  0.000  0.000  0.000  0.000    4.52   0.00   0.00      0      0  149.0   0.25   0.20    0.0   0.91    0.10    0.39    0.32    0.23    0.22    0.13    0.11    0.03    0.00    0.00        0       8
 1989 157    58    50    6.5      0  0.368    248    111      0    149    359    359      0     0.0  0.000      0      0  0.000  0.000  0.000  0.000  0.000  0.000  0.000    4.52   0.00   0.00      0      0  148.8   0.26   0.20    0.0   0.92    0.12    0.42    0.34    0.24    0.23    0.14    0.12    0.04    0.00    0.00        0       9
 1989 158    59    51    6.6      0  0.401    269    125      0    160    394    394      0     0.0  0.000      0      0  0.000  0.000  0.000  0.000  0.000  0.000  0.000    4.52   0.00   0.00      0      0  148.9   0.27   0.21    0.0   0.94    0.11    0.45    0.36    0.26    0.25    0.15    0.13    0.05    0.00    0.00        0      10
 1989 159    60    52    6.8      0  0.435    292    139      0    173    431    431      0     0.0  0.000      0      0  0.000  0.000  0.000  0.000  0.000  0.000  0.000    4.53   0.00   0.00      0      0  149.1   0.28   0.22    0.0   0.96    0.11    0.48    0.39    0.28    0.27    0.17    0.14    0.06    0.00    0.00        0      11
 1989 160    61    53    6.9      0  0.472    316    156      0    186    472    472      0     0.0  0.000      0      0  0.000  0.000  0.000  0.000  0.000  0.000  0.000    4.53   0.00   0.00      0      0  149.2   0.29   0.23    0.0   0.98    0.11    0.51    0.42    0.30    0.29    0.18    0.16    0.06    0.00    0.00        0      12
 1989 161    62    54    7.1      0  0.512    342    174      0    200    516    516      0     0.0  0.000      0      0  0.000  0.000  0.000  0.000  0.000  0.000  0.000    4.53   0.00   0.00      0      0  149.7   0.30   0.23    0.0   1.00    0.11    0.55    0.45    0.32    0.31    0.20    0.17    0.07    0.01    0.00        0      13
 1989 162    63    55    7.2      0  0.554    369    194      0    215    563    563      0     0.0  0.000      0      0  0.000  0.000  0.000  0.000  0.000  0.000  0.000    4.53   0.00   0.00      0      0  150.1   0.31   0.24    0.0   1.02    0.11    0.58    0.48    0.34    0.33    0.21    0.19    0.08    0.01    0.00        0      14
 1989 163    64    56    7.4      0  0.598    397    216      0    231    613    613      0     0.0  0.000      0      0  0.000  0.000  0.000  0.000  0.000  0.000  0.000    4.53   0.00   0.00      0      0  150.6   0.32   0.25    0.0   1.04    0.16    0.62    0.50    0.36    0.36    0.22    0.20    0.09    0.01    0.00        0      16
 1989 164    65    57    7.5      0  0.647    425    239      0    246    664    664      0     0.0  0.000      0      0  0.000  0.000  0.000  0.000  0.000  0.000  0.000    4.53   0.00   0.00      0      0  152.3   0.33   0.26    0.0   1.06    0.16    0.65    0.53    0.38    0.38    0.24    0.21    0.10    0.02    0.00        0      17
 1989 165    66    58    7.7      0  0.698    454    264      0    262    719    719      0     0.0  0.000      0      0  0.000  0.000  0.000  0.000  0.000  0.000  0.000    4.53   0.00   0.00      0      0  153.6   0.35   0.27    0.0   1.08    0.16    0.69    0.57    0.41    0.40    0.26    0.23    0.11    0.02    0.00        0      19
 1989 166    67    59    7.8      0  0.749    485    291      0    279    776    776      0     0.0  0.000      0      0  0.000  0.000  0.000  0.000  0.000  0.000  0.000    4.53   0.00   0.00      0      0  154.6   0.36   0.28    0.0   1.10    0.15    0.73    0.60    0.43    0.43    0.27    0.25    0.12    0.03    0.00        0      20
 1989 167    68    60    8.0      0  0.803    516    320      0    296    836    836      0     0.0  0.000      0      0  0.000  0.000  0.000  0.000  0.000  0.000  0.000    4.54   0.00   0.00      0      0  155.5   0.37   0.29    0.0   1.12    0.15    0.78    0.63    0.46    0.45    0.29    0.26    0.13    0.04    0.00        0      22
 1989 168    69    61    8.1      1  0.859    549    350      0    314    899    899      0     0.0  0.000      0      0  0.000  0.000  0.000  0.000  0.000  0.000  0.000    4.54   0.00   0.00      0      0  156.4   0.38   0.29    0.0   1.14    0.15    0.82    0.67    0.48    0.48    0.31    0.28    0.14    0.04    0.00        0      24
 1989 169    70    62    8.3      1  0.913    583    382      0    332    964    964      0     0.0  0.000      0      0  0.000  0.000  0.000  0.000  0.000  0.000  0.000    4.54   0.00   0.00      0      0  156.8   0.40   0.30    0.0   1.16    0.15    0.86    0.70    0.51    0.50    0.32    0.30    0.15    0.05    0.01        0      26
 1989 170    71    63    8.4      1  0.987    612    409      0    347   1021   1021      0     0.0  0.000      0      0  0.000  0.000  0.000  0.000  0.000  0.000  0.000    4.54   0.00   0.00      0      0  161.5   0.41   0.31    0.0   1.18    0.14    0.90    0.73    0.53    0.53    0.34    0.31    0.16    0.05    0.01        0      28
 1989 171    72    64    8.6      1  1.055    648    443      0    366   1091   1091      0     0.0  0.000      0      0  0.000  0.000  0.000  0.000  0.000  0.000  0.000    4.54   0.00   0.00      0      0  162.8   0.42   0.32    0.0   1.20    0.14    0.94    0.77    0.56    0.55    0.36    0.33    0.17    0.06    0.02        0      30
 1989 172    73    65    8.8      1  1.123    685    480      0    387   1166   1166      0     0.0  0.000      0      0  0.000  0.000  0.000  0.000  0.000  0.000  0.000    4.54   0.00   0.00      0      0  163.8   0.44   0.33    0.0   1.22    0.14    0.99    0.81    0.59    0.58    0.38    0.35    0.19    0.07    0.03        1      33
 1989 173    74    66    8.9      1  1.186    726    521      0    409   1247   1247      0     0.0  0.000      0      0  0.000  0.000  0.000  0.000  0.000  0.000  0.000    4.54   0.00   0.00      0      0  163.2   0.45   0.34    0.0   1.24    0.14    1.04    0.85    0.62    0.61    0.40    0.37    0.20    0.07    0.03        3      35
 1989 174    75    67    9.1      1  1.252    769    563      0    433   1332   1332      0     0.0  0.000      0      0  0.000  0.000  0.000  0.000  0.000  0.000  0.000    4.54   0.00   0.00      0      0  162.9   0.47   0.35    0.0   1.26    0.14    1.09    0.89    0.65    0.65    0.42    0.40    0.21    0.08    0.04        4      38
 1989 175    76    68    9.2      1  1.322    813    608      0    457   1420   1420      0     0.0  0.000      0      0  0.000  0.000  0.000  0.000  0.000  0.000  0.000    4.55   0.00   0.00      0      0  162.7   0.48   0.36    0.0   1.27    0.13    1.15    0.94    0.69    0.68    0.44    0.42    0.23    0.09    0.05        6      40
 1989 176    77    69    9.4      1  1.392    858    654      0    481   1512   1512      0     0.0  0.000      0      0  0.000  0.000  0.000  0.000  0.000  0.000  0.000    4.55   0.00   0.00      0      0  162.3   0.49   0.37    0.0   1.29    0.13    1.21    0.99    0.72    0.71    0.47    0.44    0.24    0.10    0.06        8      43
 1989 177    78    70    9.5      1  1.440    899    696      0    512   1595   1595      0     0.0  0.000      0      0  0.000  0.069  0.000  0.000  0.000  0.000  0.000    4.55   0.00   0.00      0      0  160.2   0.50   0.38    0.0   1.31    0.13    1.28    1.04    0.76    0.76    0.49    0.47    0.26    0.11    0.07       10      46
 1989 178    79    71    9.6      1  1.474    936    734      0    552   1670   1670      0     0.0  0.000      0      0  0.000  0.169  0.000  0.000  0.000  0.000  0.000    4.55   0.00   0.00      0      0  157.5   0.51   0.39    0.0   1.33    0.25    1.36    1.11    0.81    0.80    0.53    0.50    0.28    0.12    0.08       12      49
 1989 179    80    72    9.8      1  1.555    982    782      0    576   1765   1765      0     0.0  0.000      0      0  0.000  0.000  0.000  0.000  0.000  0.000  0.000    4.55   0.00   0.00      0      0  158.3   0.52   0.39    0.0   1.35    0.32    1.40    1.15    0.84    0.83    0.55    0.52    0.29    0.13    0.09       14      53
 1989 180    81    73    9.9      3  1.630   1029    832      0    602   1861   1861      0     0.0  0.000      0      0  0.000  0.000  0.000  0.000  0.000  0.000  0.000    4.55   0.00   0.00      0      0  158.3   0.54   0.40    0.0   1.37    0.40    1.45    1.19    0.87    0.86    0.57    0.54    0.30    0.13    0.09       17      56
 1989 181    82    74   10.1      3  1.701   1077    883      0    627   1960   1961      0     0.0  0.000      1      1  0.000  0.000  0.000  0.000  0.000  0.000  0.000    4.56   0.00   0.00      0      1  157.9   0.55   0.41    0.0   1.39    0.39    1.51    1.24    0.91    0.90    0.59    0.57    0.32    0.14    0.10       19      60
 1989 182    83    75   10.2      3  1.773   1125    934      0    653   2059   2063      0     0.0  0.000      4      2  0.000  0.000  0.000  0.000  0.000  0.000  0.000    4.56   0.00   0.00      0      4  157.6   0.57   0.42    0.0   1.41    0.47    1.56    1.28    0.94    0.93    0.61    0.59    0.33    0.15    0.11       22      64
 1989 183    84    76   10.4      3  1.845   1174    986      0    679   2160   2169      0     0.0  0.000      9      3  0.000  0.000  0.000  0.000  0.000  0.000  0.000    4.56   0.00   0.00      0      9  157.2   0.58   0.43    0.0   1.43    0.55    1.61    1.32    0.97    0.96    0.63    0.61    0.34    0.16    0.12       25      68
 1989 184    85    77   10.5      3  1.914   1220   1037      0    704   2257   2272      0     0.0  0.000     15      4  0.000  0.000  0.000  0.000  0.000  0.000  0.000    4.56   0.00   0.01      0     15  156.9   0.60   0.44    0.0   1.45    0.54    1.67    1.37    1.00    1.00    0.66    0.63    0.36    0.16    0.12       28      72
 1989 185    86    78   10.7      3  1.977   1261   1082      0    726   2343   2366      0     0.0  0.000     23      5  0.000  0.000  0.000  0.000  0.000  0.000  0.000    4.56   0.00   0.01      0     23  156.8   0.61   0.45    0.0   1.47    0.61    1.71    1.40    1.03    1.02    0.67    0.65    0.37    0.17    0.13       32      76
 1989 186    87    79   10.8      3  2.048   1305   1136      0    751   2441   2474      0     0.0  0.000     33      6  0.000  0.000  0.000  0.000  0.000  0.000  0.000    4.55   0.00   0.01      0     33  156.9   0.62   0.46    0.0   1.49    0.69    1.76    1.44    1.06    1.05    0.69    0.67    0.38    0.18    0.14       38      80
 1989 187    88    80   11.0      3  2.123   1347   1189      0    776   2536   2582      0     0.0  0.000     46      8  0.000  0.000  0.000  0.000  0.000  0.000  0.000    4.52   0.00   0.02      0     46  157.6   0.64   0.47    0.0   1.51    0.67    1.82    1.49    1.09    1.09    0.72    0.69    0.40    0.18    0.15       43      86
 1989 188    89    81   11.1      3  2.194   1389   1244      0    802   2633   2694      0     0.0  0.000     61      9  0.000  0.000  0.000  0.000  0.000  0.000  0.000    4.46   0.00   0.02      0     61  157.9   0.66   0.48    0.0   1.51    0.76    1.87    1.53    1.12    1.12    0.74    0.72    0.41    0.19    0.15       49      91
 1989 189    90    82   11.3      3  2.274   1432   1300      0    828   2732   2815      0     0.0  0.000     83     11  0.000  0.000  0.000  0.000  0.000  0.000  0.000    4.39   0.00   0.03      0     83  158.8   0.67   0.50    0.0   1.51    0.84    1.92    1.57    1.15    1.15    0.76    0.74    0.42    0.20    0.16       56      96
 1989 190    91    83   11.5      5  2.333   1476   1366      0    851   2842   2949      8     0.0  0.000    107     14  0.000  0.000  0.000  0.000  0.000  0.000  0.000    4.30   0.00   0.04      0    107  158.1   0.69   0.51    0.0   1.51    0.82    1.97    1.62    1.19    1.18    0.78    0.76    0.44    0.21    0.17       67     102
 1989 191    92    84   11.6      5  2.406   1507   1412      0    871   2919   3054     25     1.5  0.000    135     16  0.000  0.000  0.000  0.000  0.000  0.000  0.000    4.25   0.27   0.04      0    135  159.7   0.70   0.52    0.0   1.51    0.81    2.02    1.66    1.22    1.21    0.80    0.78    0.45    0.21    0.18       83     108
 1989 192    93    85   11.8      5  2.461   1545   1468      2    896   3013   3187     40     3.9  0.001    174     19  0.000  0.000  0.000  0.000  0.000  0.000  0.000    4.18   0.92   0.05      0    174  159.3   0.72   0.53    0.0   1.51    0.89    2.07    1.70    1.25    1.24    0.82    0.80    0.46    0.22    0.18       98     114
 1989 193    94    86   11.9      5  2.497   1582   1535      3    914   3117   3330     60     5.6  0.001    214     23  0.000  0.000  0.000  0.000  0.000  0.000  0.000    4.09   1.57   0.06      0    214  157.8   0.73   0.54    0.0   1.51    0.95    2.11    1.72    1.27    1.26    0.83    0.81    0.47    0.23    0.19      114     120
 1989 194    95    87   12.0      5  2.535   1615   1592      6    932   3207   3462     77     7.4  0.002    255     25  0.000  0.000  0.000  0.000  0.000  0.000  0.000    4.01   2.25   0.07      0    255  156.9   0.74   0.55    0.0   1.51    0.93    2.15    1.76    1.29    1.29    0.85    0.83    0.48    0.23    0.20      129     126
 1989 195    96    88   12.2      5  2.567   1647   1651      9    948   3298   3594     96     9.0  0.002    296     26  0.000  0.000  0.000  0.000  0.000  0.000  0.000    3.94   2.93   0.08      0    296  155.9   0.76   0.56    0.0   1.51    0.92    2.19    1.79    1.32    1.31    0.87    0.85    0.49    0.24    0.20      144     132
 1989 196    97    89   12.3      5  2.611   1676   1702     13    968   3378   3717    127    10.0  0.003    339     27  0.000  0.000  0.000  0.000  0.000  0.000  0.000    3.87   3.74   0.09      0    339  155.8   0.77   0.56    0.0   1.51    0.99    2.22    1.82    1.34    1.33    0.88    0.86    0.50    0.24    0.21      166     138
 1989 197    98    90   12.4      5  2.647   1695   1748     18    979   3444   3830    160    11.4  0.005    387     29  0.000  0.000  0.000  0.000  0.000  0.000  0.000    3.80   4.71   0.10      0    387  156.1   0.78   0.57    0.0   1.51    1.03    2.25    1.84    1.35    1.35    0.89    0.87    0.50    0.25    0.21      188     145
 1989 198    99    91   12.6      5  2.666   1723   1816     25    989   3538   3973    196    12.7  0.006    434     31  0.000  0.000  0.000  0.000  0.000  0.000  0.000    3.71   5.72   0.11      0    434  154.8   0.80   0.58    0.0   1.51    1.07    2.26    1.85    1.36    1.36    0.90    0.88    0.51    0.25    0.21      211     152
 1989 199   100    92   12.7      5  2.693   1748   1869     32   1003   3617   4091    244    13.2  0.008    474     32  0.000  0.000  0.000  0.000  0.000  0.000  0.000    3.64   6.77   0.12      0    474  154.1   0.81   0.59    0.0   1.51    1.12    2.29    1.88    1.38    1.37    0.91    0.89    0.52    0.25    0.22      238     158
 1989 200   101    93   12.8      5  2.763   1787   1881     40   1007   3667   4139    290    13.9  0.010    472     33  0.000  0.000  0.000  0.000  0.000  0.000  0.000    3.92   8.55   0.11      0    472  154.7   0.82   0.60    0.0   1.51    1.12    2.29    1.87    1.38    1.37    0.91    0.89    0.52    0.25    0.22      254     165
 1989 201   102    94   12.9      5  2.830   1824   1909     51   1019   3733   4235    347    14.6  0.012    502     33  0.000  0.000  0.000  0.000  0.000  0.000  0.000    4.03  10.10   0.12      0    502  155.2   0.83   0.61    0.0   1.51    1.16    2.30    1.89    1.39    1.38    0.92    0.90    0.52    0.26    0.22      275     172
 1989 202   103    95   13.0      5  2.877   1841   1947     65   1036   3789   4331    411    15.8  0.015    542     34  0.000  0.000  0.000  0.000  0.000  0.000  0.000    3.97  12.01   0.13      0    542  156.2   0.84   0.62    0.0   1.51    1.22    2.34    1.92    1.41    1.40    0.93    0.91    0.53    0.26    0.23      313     178
 1989 203   104    96   13.1      5  2.910   1858   1989     84   1052   3848   4452    454    18.6  0.019    605     37  0.000  0.000  0.000  0.000  0.000  0.000  0.000    3.91  13.95   0.14      0    605  156.6   0.85   0.62    0.0   1.51    1.28    2.37    1.94    1.43    1.42    0.94    0.92    0.54    0.27    0.23      342     186
 1989 204   105    97   13.2      5  2.926   1876   2041    104   1063   3917   4592    487    21.3  0.023    675     42  0.000  0.000  0.000  0.000  0.000  0.000  0.000    3.83  15.39   0.15      0    675  156.0   0.87   0.63    0.0   1.51    1.26    2.40    1.97    1.45    1.44    0.95    0.94    0.55    0.27    0.24      366     193
 1989 205   106    98   13.3      5  2.947   1890   2081    123   1076   3970   4719    519    23.8  0.026    749     48  0.000  0.000  0.000  0.000  0.000  0.000  0.000    3.76  16.48   0.16      0    749  155.9   0.88   0.64    0.0   1.51    1.24    2.43    1.99    1.47    1.46    0.97    0.95    0.55    0.27    0.24      389     201
 1989 206   107    99   13.4      5  2.945   1904   2140    145   1081   4044   4868    560    25.8  0.030    824     52  0.000  0.000  0.000  0.000  0.000  0.000  0.000    3.67  17.56   0.17      0    824  154.7   0.89   0.65    0.0   1.51    1.22    2.45    2.00    1.47    1.47    0.97    0.96    0.56    0.28    0.24      416     209
 1989 207   108   100   13.5      5  2.945   1916   2191    168   1086   4107   5014    599    28.1  0.034    907     54  0.000  0.000  0.000  0.000  0.000  0.000  0.000    3.59  18.58   0.18      0    907  153.7   0.90   0.65    0.0   1.51    1.20    2.46    2.02    1.48    1.48    0.98    0.96    0.56    0.28    0.25      442     217
 1989 208   109   101   13.6      5  2.918   1921   2253    197   1081   4175   5179    643    30.6  0.038   1004     57  0.000  0.000  0.027  0.000  0.000  0.000  0.000    3.49  19.57   0.19      0   1004  151.9   0.91   0.66    0.0   1.51    1.20    2.45    2.01    1.48    1.47    0.98    0.96    0.56    0.28    0.25      469     224
 1989 209   110   102   13.7      5  2.889   1914   2285    230   1076   4199   5326    677    33.9  0.043   1127     62  0.000  0.000  0.027  0.000  0.000  0.000  0.000    3.40  20.36   0.21      0   1127  151.0   0.91   0.66    0.0   1.51    1.20    2.44    2.00    1.47    1.47    0.97    0.95    0.56    0.28    0.24      491     232
 1989 210   111   103   13.8      5  2.881   1908   2304    262   1079   4212   5464    689    38.0  0.048   1252     69  0.000  0.000  0.000  0.000  0.000  0.000  0.000    3.34  20.94   0.23      0   1252  151.0   0.92   0.67    0.0   1.51    1.22    2.45    2.01    1.48    1.47    0.98    0.96    0.56    0.28    0.25      508     239
 1989 211   112   104   13.8      5  2.853   1906   2347    294   1074   4253   5618    736    39.9  0.052   1366     74  0.000  0.000  0.000  0.000  0.000  0.000  0.000    3.25  21.51   0.24      0   1366  149.7   0.93   0.67    0.0   1.51    1.22    2.44    2.00    1.47    1.46    0.97    0.95    0.56    0.28    0.25      534     247
 1989 212   113   105   13.9      5  2.853   1904   2372    325   1079   4276   5689    944    34.5  0.057   1413     73  0.000  0.000  0.000  0.000  0.000  0.000  0.000    3.18  23.02   0.25      0   1413  149.8   0.93   0.68    0.0   1.51    1.25    2.45    2.01    1.48    1.47    0.98    0.96    0.56    0.28    0.25      603     254
 1989 213   114   106   14.0      5  2.843   1906   2407    365   1080   4313   5832    944    38.6  0.063   1519     75  0.000  0.000  0.000  0.000  0.000  0.000  0.000    3.11  24.00   0.26      0   1519  149.2   0.94   0.68    0.0   1.51    1.27    2.45    2.01    1.48    1.47    0.98    0.96    0.56    0.28    0.25      615     261
 1989 214   115   107   14.0      5  2.814   1903   2453    407   1073   4356   5962   1070    38.0  0.068   1606     77  0.000  0.000  0.017  0.000  0.000  0.000  0.000    3.02  25.33   0.27      0   1606  147.9   0.95   0.69    0.0   1.51    1.26    2.44    2.00    1.47    1.46    0.97    0.95    0.56    0.28    0.25      665     268
 1989 215   116   108   14.1      5  2.789   1893   2477    457   1068   4371   6074   1150    39.8  0.075   1704     81  0.000  0.000  0.017  0.000  0.000  0.000  0.000    2.94  26.83   0.28      0   1704  147.3   0.95   0.69    0.0   1.51    1.26    2.43    1.99    1.46    1.46    0.97    0.95    0.56    0.28    0.25      699     276
 1989 216   117   109   14.1      5  2.758   1883   2507    512   1060   4390   6207   1217    42.1  0.083   1816     87  0.000  0.000  0.000  0.000  0.000  0.000  0.000    2.86  28.21   0.29      0   1816  146.5   0.96   0.69    0.0   1.51    1.25    2.41    1.97    1.45    1.45    0.96    0.94    0.55    0.28    0.24      728     283
 1989 217   118   110   14.1      5  2.737   1875   2529    569   1056   4404   6295   1403    40.5  0.090   1891     91  0.000  0.000  0.000  0.000  0.000  0.000  0.000    2.79  30.07   0.30      0   1891  146.0   0.96   0.70    0.0   1.51    1.26    2.40    1.97    1.45    1.44    0.96    0.94    0.55    0.27    0.24      783     291
 1989 218   119   111   14.2      5  2.719   1870   2556    629   1052   4426   6394   1550    40.6  0.098   1968     95  0.000  0.000  0.000  0.000  0.000  0.000  0.000    2.72  31.97   0.31      0   1968  145.4   0.96   0.70    0.0   1.51    1.26    2.40    1.96    1.44    1.44    0.95    0.94    0.55    0.27    0.24      824     298
 1989 219   120   112   14.2      5  2.693   1861   2582    700   1045   4443   6512   1668    41.9  0.107   2069     98  0.000  0.000  0.013  0.000  0.000  0.000  0.000    2.64  33.83   0.32      0   2069  144.8   0.97   0.70    0.0   1.51    1.25    2.38    1.95    1.44    1.43    0.95    0.93    0.55    0.27    0.24      852     305
 1989 220   121   113   14.2      5  2.685   1852   2589    775   1046   4442   6612   1710    45.3  0.117   2170    102  0.000  0.000  0.013  0.000  0.000  0.000  0.000    2.60  35.69   0.33      0   2170  145.0   0.97   0.70    0.0   1.51    1.27    2.38    1.95    1.44    1.43    0.95    0.93    0.55    0.27    0.24      868     313
 1989 221   122   114   14.3      5  2.660   1846   2622    856   1038   4468   6747   1744    49.1  0.127   2279    106  0.000  0.000  0.038  0.000  0.000  0.000  0.000    2.52  37.56   0.34      0   2279  144.1   0.97   0.70    0.0   1.51    1.26    2.37    1.94    1.43    1.42    0.94    0.93    0.54    0.27    0.24      882     320
 1989 222   123   115   14.3      5  2.638   1827   2614    945   1031   4441   6831   1800    52.5  0.138   2390    110  0.000  0.000  0.038  0.000  0.000  0.000  0.000    2.47  39.56   0.35      0   2390  144.4   0.98   0.71    0.0   1.51    1.26    2.35    1.93    1.42    1.41    0.94    0.92    0.54    0.27    0.24      902     327
 1989 223   124   116   14.3      5  2.618   1816   2622   1032   1024   4438   6929   1863    55.4  0.149   2491    112  0.000  0.000  0.000  0.000  0.000  0.000  0.000    2.41  41.42   0.36      0   2491  144.2   0.98   0.71    0.0   1.51    1.25    2.34    1.92    1.41    1.41    0.93    0.92    0.54    0.27    0.24      928     334
 1989 224   125   117   14.3      5  2.606   1807   2631   1114   1021   4439   7013   1926    57.8  0.159   2574    112  0.000  0.000  0.000  0.000  0.000  0.000  0.000    2.36  43.28   0.37      0   2574  144.2   0.98   0.71    0.0   1.51    1.26    2.33    1.91    1.41    1.40    0.93    0.91    0.54    0.27    0.24      954     342
 1989 225   126   118   14.4      5  2.587   1802   2656   1191   1015   4458   7114   1948    61.1  0.167   2657    110  0.000  0.000  0.064  0.000  0.000  0.000  0.000    2.30  44.84   0.37      0   2657  143.6   0.98   0.71    0.0   1.51    1.25    2.32    1.90    1.40    1.39    0.92    0.91    0.53    0.27    0.24      969     349
 1989 226   127   119   14.4      5  2.586   1795   2657   1266   1018   4451   7182   1948    65.0  0.176   2731    107  0.000  0.000  0.064  0.000  0.000  0.000  0.000    2.26  46.37   0.38      0   2731  144.1   0.98   0.71    0.0   1.51    1.27    2.33    1.90    1.40    1.40    0.93    0.91    0.53    0.27    0.24      977     356
 1989 227   128   120   14.4      5  2.577   1789   2668   1346   1016   4457   7270   1969    68.3  0.185   2812    105  0.000  0.000  0.005  0.000  0.000  0.000  0.000    2.22  47.85   0.39      0   2812  144.0   0.99   0.71    0.0   1.51    1.28    2.32    1.90    1.40    1.39    0.93    0.91    0.53    0.27    0.24      991     363
 1989 228   129   121   14.4      5  2.565   1780   2672   1432   1011   4452   7349   1999    71.6  0.195   2897    103  0.000  0.000  0.005  0.000  0.000  0.000  0.000    2.18  49.44   0.39      0   2897  144.1   0.99   0.71    0.0   1.51    1.28    2.31    1.89    1.39    1.39    0.92    0.90    0.53    0.27    0.24     1007     370
 1989 229   130   122   14.5      5  2.548   1774   2687   1526   1003   4461   7450   2004    76.1  0.205   2989    102  0.000  0.000  0.046  0.000  0.000  0.000  0.000    2.13  51.04   0.40      0   2989  143.7   0.99   0.72    0.0   1.51    1.27    2.29    1.88    1.38    1.38    0.91    0.90    0.53    0.26    0.24     1016     377
 1989 230   131   123   14.5      5  2.531   1764   2694   1620    996   4458   7536   2004    80.8  0.215   3078     99  0.000  0.000  0.123  0.000  0.000  0.000  0.000    2.08  52.63   0.41      0   3078  143.5   0.99   0.72    0.0   1.51    1.26    2.28    1.86    1.37    1.37    0.91    0.89    0.52    0.26    0.23     1022     384
 1989 231   132   124   14.5      5  2.515   1755   2699   1712    988   4454   7619   2004    85.4  0.225   3165     94  0.000  0.000  0.140  0.000  0.000  0.000  0.000    2.04  54.09   0.42      0   3165  143.3   1.00   0.72    0.0   1.51    1.25    2.26    1.85    1.36    1.36    0.90    0.89    0.52    0.26    0.23     1028     390
 1989 232   133   125   14.5      5  2.500   1744   2698   1806    981   4442   7698   2004    90.1  0.235   3256     94  0.000  0.000  0.085  0.000  0.000  0.000  0.000    2.00  55.46   0.42      0   3256  143.4   1.00   0.72    0.0   1.51    1.24    2.25    1.84    1.35    1.35    0.90    0.88    0.52    0.26    0.23     1034     397
 1989 233   134   126   14.5      5  2.486   1733   2697   1902    974   4430   7776   2007    94.7  0.245   3346     90  0.000  0.000  0.065  0.000  0.000  0.000  0.000    1.96  56.84   0.43      0   3346  143.4   1.00   0.72    0.0   1.51    1.23    2.23    1.83    1.35    1.34    0.89    0.87    0.51    0.26    0.23     1041     403
 1989 234   135   127   14.5      5  2.475   1726   2701   1983    969   4427   7850   2007    98.8  0.253   3423     87  0.000  0.000  0.191  0.000  0.000  0.000  0.000    1.93  57.94   0.44      0   3423  143.4   1.00   0.72    0.0   1.51    1.23    2.22    1.82    1.34    1.33    0.89    0.87    0.51    0.26    0.23     1045     409
 1989 235   136   128   14.5      5  2.464   1717   2699   2064    963   4416   7916   2007   102.8  0.261   3500     84  0.000  0.000  0.278  0.000  0.000  0.000  0.000    1.90  58.96   0.44      0   3500  143.5   1.00   0.72    0.0   1.51    1.22    2.21    1.81    1.33    1.33    0.88    0.87    0.51    0.25    0.23     1049     414
 1989 236   137   129   14.6      5  2.451   1707   2696   2149    957   4404   7984   2007   107.0  0.269   3581     82  0.000  0.000  0.277  0.000  0.000  0.000  0.000    1.87  60.00   0.45      0   3581  143.6   1.00   0.72    0.0   1.51    1.21    2.20    1.80    1.32    1.32    0.88    0.86    0.50    0.25    0.23     1054     420
 1989 237   138   130   14.6      5  2.440   1698   2693   2230    950   4390   8049   2007   111.1  0.277   3658     80  0.000  0.000  0.307  0.000  0.000  0.000  0.000    1.84  60.96   0.45      0   3658  143.7   1.00   0.72    0.0   1.51    1.20    2.18    1.79    1.32    1.31    0.87    0.86    0.50    0.25    0.22     1058     426
 1989 238   139   131   14.6      5  2.430   1688   2688   2305    944   4376   8105   2007   114.8  0.284   3729     78  0.000  0.000  0.325  0.000  0.000  0.000  0.000    1.81  61.80   0.46      0   3729  143.9   1.00   0.72    0.0   1.51    1.18    2.17    1.78    1.31    1.30    0.87    0.85    0.50    0.25    0.22     1062     431
 1989 239   140   132   14.6      5  2.420   1677   2677   2384    937   4354   8159   2007   118.8  0.292   3805     78  0.000  0.000  0.253  0.000  0.000  0.000  0.000    1.79  62.65   0.47      0   3805  144.3   1.00   0.72    0.0   1.51    1.16    2.16    1.77    1.30    1.30    0.86    0.85    0.50    0.25    0.22     1066     437
 1989 240   141   133   14.6      5  2.410   1669   2677   2451    931   4346   8215   2007   122.1  0.298   3869     75  0.000  0.000  0.246  0.000  0.000  0.000  0.000    1.76  63.36   0.47      0   3869  144.4   1.00   0.72    0.0   1.51    1.14    2.15    1.76    1.29    1.29    0.86    0.84    0.49    0.25    0.22     1070     444
 1989 241   142   134   14.6      5  2.401   1660   2668   2513    925   4327   8256   2007   125.2  0.304   3929     75  0.000  0.000  0.236  0.000  0.000  0.000  0.000    1.74  63.96   0.48      0   3929  144.7   1.00   0.72    0.0   1.51    1.12    2.13    1.75    1.29    1.28    0.85    0.84    0.49    0.25    0.22     1073     449
 1989 242   143   135   14.6      5  2.397   1647   2643   2576    923   4291   8282   2007   128.3  0.311   3991     76  0.000  0.000  0.077  0.000  0.000  0.000  0.000    1.73  64.54   0.48      0   3991  145.5   1.00   0.72    0.0   1.51    1.10    2.13    1.74    1.28    1.28    0.85    0.83    0.49    0.25    0.22     1077     456
 1989 243   144   136   14.6      5  2.388   1642   2647   2638    916   4289   8337   2013   131.1  0.316   4048     76  0.000  0.000  0.167  0.000  0.000  0.000  0.000    1.70  65.18   0.49      0   4048  145.5   1.00   0.72    0.0   1.51    1.09    2.12    1.73    1.28    1.27    0.84    0.83    0.49    0.24    0.22     1082     462
 1989 244   145   137   14.6      5  2.380   1632   2636   2696    910   4268   8371   2013   133.9  0.322   4103     76  0.000  0.000  0.248  0.000  0.000  0.000  0.000    1.68  65.69   0.49      0   4103  145.9   1.00   0.72    0.0   1.51    1.07    2.10    1.72    1.27    1.26    0.84    0.82    0.48    0.24    0.22     1085     469
 1989 245   146   138   14.6      5  2.371   1618   2614   2758    902   4232   8395   2013   137.0  0.329   4163     76  0.000  0.000  0.162  0.000  0.000  0.000  0.000    1.67  66.26   0.50      0   4163  146.6   1.00   0.72    0.0   1.51    1.05    2.09    1.71    1.26    1.25    0.83    0.82    0.48    0.24    0.21     1089     475
 1989 246   147   139   14.6      5  2.364   1609   2604   2816    896   4212   8430   2013   139.9  0.334   4218     76  0.000  0.000  0.293  0.000  0.000  0.000  0.000    1.65  66.77   0.50      0   4218  147.0   1.00   0.72    0.0   1.51    1.04    2.08    1.70    1.25    1.25    0.83    0.81    0.48    0.24    0.21     1091     481
 1989 247   148   140   14.6      5  2.357   1598   2590   2870    890   4188   8458   2013   142.6  0.339   4269     76  0.000  0.000  0.318  0.000  0.000  0.000  0.000    1.63  67.23   0.50      0   4269  147.5   1.00   0.72    0.0   1.51    1.04    2.06    1.69    1.24    1.24    0.82    0.81    0.47    0.24    0.21     1094     487
 1989 248   149   141   14.6      5  2.350   1590   2582   2915    884   4173   8484   2013   144.8  0.344   4311     76  0.000  0.000  0.315  0.000  0.000  0.000  0.000    1.62  67.61   0.51      0   4311  147.8   1.00   0.72    0.0   1.51    1.03    2.05    1.68    1.23    1.23    0.82    0.80    0.47    0.24    0.21     1096     493
 1989 249   150   142   14.6      5  2.344   1580   2568   2960    878   4148   8502   2013   147.0  0.348   4354     76  0.000  0.000  0.391  0.000  0.000  0.000  0.000    1.60  67.98   0.51      0   4354  148.3   1.00   0.72    0.0   1.51    1.01    2.04    1.67    1.23    1.22    0.81    0.80    0.47    0.23    0.21     1099     499
 1989 250   151   143   14.6      5  2.337   1572   2556   3003    871   4128   8522   2013   149.1  0.352   4395     76  0.000  0.000  0.327  0.000  0.000  0.000  0.000    1.59  68.32   0.52      0   4395  148.7   1.00   0.73    0.0   1.51    0.99    2.02    1.65    1.22    1.21    0.81    0.79    0.46    0.23    0.21     1101     505
 1989 251   152   144   14.6      5  2.332   1564   2548   3045    865   4112   8545   2017   151.0  0.356   4434     76  0.000  0.000  0.375  0.000  0.000  0.000  0.000    1.57  68.68   0.52      0   4434  149.1   1.00   0.73    0.0   1.51    0.98    2.01    1.64    1.21    1.21    0.80    0.79    0.46    0.23    0.21     1105     511
 1989 252   153   145   14.6      5  2.327   1556   2535   3082    860   4090   8560   2017   152.9  0.360   4469     75  0.000  0.043  0.381  0.000  0.000  0.000  0.000    1.56  68.97   0.52      0   4469  149.6   1.00   0.73    0.0   1.51    0.96    2.00    1.64    1.20    1.20    0.80    0.78    0.46    0.23    0.21     1106     516
 1989 253   154   146   14.6      7  2.322   1549   2527   3115    855   4076   8577   2017   154.5  0.363   4501     75  0.000  0.150  0.388  0.000  0.000  0.000  0.000    1.55  69.22   0.52      0   4501  149.9   1.00   0.73    0.0   1.51    0.95    1.98    1.63    1.20    1.19    0.79    0.78    0.46    0.23    0.20     1108     521
 1989 254   155   147   14.6      7  2.297   1528   2510   3144    854   4038   8566   2018   155.8  0.367   4528     75  0.000  0.246  0.376  0.000  0.000  0.000  0.000    1.55  69.43   0.53      0   4528  150.4   1.00   0.73    0.0   1.51    0.93    1.98    1.62    1.20    1.19    0.79    0.78    0.46    0.23    0.20     1126     527
 1989 255   156   148   14.6      7  2.272   1509   2506   3170    848   4016   8569   2018   157.1  0.370   4553     75  0.035  0.357  0.384  0.000  0.000  0.000  0.000    1.54  69.63   0.53      0   4553  150.6   1.00   0.73    0.0   1.51    0.92    1.96    1.61    1.19    1.19    0.79    0.77    0.45    0.23    0.20     1142     533
 1989 256   157   149   14.6      7  2.247   1488   2490   3188    846   3978   8548   2018   158.0  0.373   4570     75  0.166  0.444  0.454  0.000  0.000  0.000  0.000    1.53  69.76   0.53      0   4570  151.1   1.00   0.73    0.0   1.51    0.90    1.95    1.61    1.19    1.19    0.79    0.78    0.45    0.23    0.20     1159     538
 1989 257   158   150   14.6      7  2.223   1462   2456   3201    855   3918   8500   2018   158.6  0.377   4582     75  0.372  0.582  0.290  0.000  0.000  0.000  0.000    1.53  69.86   0.54      0   4582  152.0   1.00   0.73    0.0   1.51    0.89    1.96    1.62    1.20    1.20    0.80    0.79    0.46    0.23    0.21     1175     544
 1989 258   159   151   14.6      7  2.199   1436   2420   3211    868   3856   8446   2018   159.1  0.380   4590     75  0.449  0.632  0.081  0.000  0.000  0.000  0.000    1.54  69.95   0.54      0   4590  153.1   1.00   0.73    0.0   1.51    0.88    1.97    1.64    1.22    1.22    0.82    0.81    0.47    0.24    0.21     1192     551
 1989 259   160   152   14.6      7  2.175   1411   2385   3219    879   3796   8392   2018   159.5  0.384   4596     75  0.506  0.671  0.051  0.000  0.000  0.000  0.000    1.55  70.03   0.55      0   4596  154.1   1.01   0.73    0.0   1.51    0.86    1.97    1.65    1.24    1.24    0.84    0.82    0.48    0.24    0.22     1207     558
 1989 260   161   153   14.7      7  2.151   1392   2364   3219    893   3756   8351   2018   159.5  0.385   4595     75  0.356  0.571  0.222  0.000  0.000  0.000  0.000    1.55  70.05   0.55      0   4595  154.6   1.01   0.73    0.0   1.51    0.85    1.98    1.66    1.26    1.26    0.86    0.84    0.50    0.25    0.23     1223     566
 1989 261   162   154   14.7      7  2.128   1370   2337   3219    908   3707   8302   2018   159.5  0.388   4595     75  0.460  0.640  0.171  0.000  0.000  0.000  0.000    1.56  70.05   0.55      0   4595  155.3   1.01   0.73    0.0   1.51    0.84    1.98    1.68    1.28    1.28    0.88    0.87    0.51    0.26    0.24     1238     574
 1989 262   163   155   14.7      7  2.106   1351   2316   3219    921   3667   8263   2018   159.5  0.390   4595     75  0.418  0.612  0.106  0.000  0.000  0.000  0.000    1.56  70.05   0.56      0   4595  155.8   1.01   0.73    0.0   1.51    0.82    1.99    1.69    1.29    1.30    0.90    0.89    0.53    0.27    0.24     1253     582
 1989 263   164   156   14.7      8  2.083   1332   2294   3219    929   3626   8222   2018   159.5  0.392   4595     75  0.406  0.604  0.106  0.000  0.000  0.000  0.000    1.57  70.05   0.56      0   4595  156.4   1.01   0.73    0.0   1.51    0.81    1.98    1.69    1.30    1.31    0.91    0.90    0.54    0.27    0.25     1268     589

*DSSAT Cropping System Model Ver. 4.8.2.006 -  APR 10, 2025 22:06:01

*RUN   2        : CO2 Enrichment - 550 ppm  CRGRO048 AZMC8901    2
 MODEL          : CRGRO048 - Cotton
 EXPERIMENT     : AZMC8901 CO 1989 FACE EXPERIMENT
 DATA PATH      :
 TREATMENT  2   : CO2 Enrichment - 550 ppm  CRGRO048
  
!                                                                                                                                                                                                                                                    Root Dens. (cm/cm3) by soil depth (cm):
!                                                                                                                                                                                                                                                    0-5    5-15   15-30   30-40   40-50   50-60   60-70   70-90  90-110 110-210
@YEAR DOY   DAS   DAP   L#SD   GSTD   LAID   LWAD   SWAD   GWAD   RWAD   VWAD   CWAD   G#AD    GWGD   HIAD   PWAD   P#AD   WSPD   WSGD   NSTD  PST1A  PST2A   KSTD   EWSD    LN%D   SH%D   HIPD   PWDD   PWTD   SLAD   CHTD   CWID   NWAD   RDPD    RL1D    RL2D    RL3D    RL4D    RL5D    RL6D    RL7D    RL8D    RL9D   RL10D    SNW0C   SNW1C
 1989 107     8     0    0.0      0  0.000      0      0      0      0      0      0      0     0.0  0.000      0      0  0.000  0.000  0.000  0.000  0.000  0.000  0.000    0.00   0.00   0.00      0      0    0.0   0.00   0.00    0.0   0.00    0.00    0.00    0.00    0.00    0.00    0.00    0.00    0.00    0.00    0.00        0       0
 1989 108     9     1    0.0      0  0.000      0      0      0      0      0      0      0     0.0  0.000      0      0  0.000  0.000  0.000  0.000  0.000  0.000  0.000    0.00   0.00   0.00      0      0    0.0   0.00   0.00    0.0   0.00    0.00    0.00    0.00    0.00    0.00    0.00    0.00    0.00    0.00    0.00        0       0
 1989 109    10     2    0.0      0  0.000      0      0      0      0      0      0      0     0.0  0.000      0      0  0.000  0.000  0.000  0.000  0.000  0.000  0.000    0.00   0.00   0.00      0      0    0.0   0.00   0.00    0.0   0.00    0.00    0.00    0.00    0.00    0.00    0.00    0.00    0.00    0.00    0.00        0       0
 1989 110    11     3    0.0      0  0.000      0      0      0      0      0      0      0     0.0  0.000      0      0  0.000  0.000  0.000  0.000  0.000  0.000  0.000    0.00   0.00   0.00      0      0    0.0   0.00   0.00    0.0   0.00    0.00    0.00    0.00    0.00    0.00    0.00    0.00    0.00    0.00    0.00        0       0
 1989 111    12     4    0.0      0  0.000      0      0      0      0      0      0      0     0.0  0.000      0      0  0.000  0.000  0.000  0.000  0.000  0.000  0.000    0.00   0.00   0.00      0      0    0.0   0.00   0.00    0.0   0.00    0.00    0.00    0.00    0.00    0.00    0.00    0.00    0.00    0.00    0.00        0       0
 1989 112    13     5    0.0      0  0.000      0      0      0      0      0      0      0     0.0  0.000      0      0  0.000  0.000  0.000  0.000  0.000  0.000  0.000    0.00   0.00   0.00      0      0    0.0   0.00   0.00    0.0   0.00    0.00    0.00    0.00    0.00    0.00    0.00    0.00    0.00    0.00    0.00        0       0
 1989 113    14     6    0.0      0  0.000      0      0      0      0      0      0      0     0.0  0.000      0      0  0.000  0.000  0.000  0.000  0.000  0.000  0.000    0.00   0.00   0.00      0      0    0.0   0.00   0.00    0.0   0.00    0.00    0.00    0.00    0.00    0.00    0.00    0.00    0.00    0.00    0.00        0       0
 1989 114    15     7    0.0      0  0.000      0      0      0      0      0      0      0     0.0  0.000      0      0  0.000  0.000  0.000  0.000  0.000  0.000  0.000    0.00   0.00   0.00      0      0    0.0   0.00   0.00    0.0   0.00    0.00    0.00    0.00    0.00    0.00    0.00    0.00    0.00    0.00    0.00        0       0
 1989 115    16     8    0.0      0  0.000      0      0      0      0      0      0      0     0.0  0.000      0      0  0.000  0.000  0.000  0.000  0.000  0.000  0.000    0.00   0.00   0.00      0      0    0.0   0.00   0.00    0.0   0.00    0.00    0.00    0.00    0.00    0.00    0.00    0.00    0.00    0.00    0.00        0       0
 1989 116    17     9    0.0      0  0.000      0      0      0      0      0      0      0     0.0  0.000      0      0  0.000  0.000  0.000  0.000  0.000  0.000  0.000    0.00   0.00   0.00      0      0    0.0   0.00   0.00    0.0   0.00    0.00    0.00    0.00    0.00    0.00    0.00    0.00    0.00    0.00    0.00        0       0
 1989 117    18    10    0.0      0  0.009      6      1      0      3      7      7      0     0.0  0.000      0      0  0.000  0.000  0.000  0.000  0.000  0.000  0.000    4.48   0.00   0.00      0      0  150.1   0.03   0.03    0.0   0.26    0.02    0.02    0.01    0.00    0.00    0.00    0.00    0.00    0.00    0.00        0       0
 1989 118    19    11    0.1      0  0.009      6      1      0      3      7      7      0     0.0  0.000      0      0  0.000  0.000  0.000  0.000  0.000  0.000  0.000    4.49   0.00   0.00      0      0  148.0   0.03   0.03    0.0   0.27    0.02    0.02    0.01    0.00    0.00    0.00    0.00    0.00    0.00    0.00        0       0
 1989 119    20    12    0.2      0  0.010      7      1      0      4      8      8      0     0.0  0.000      0      0  0.000  0.000  0.000  0.000  0.000  0.000  0.000    4.49   0.00   0.00      0      0  146.2   0.03   0.03    0.0   0.28    0.02    0.02    0.01    0.00    0.00    0.00    0.00    0.00    0.00    0.00        0       0
 1989 120    21    13    0.4      0  0.011      7      1      0      4      8      8      0     0.0  0.000      0      0  0.000  0.000  0.000  0.000  0.000  0.000  0.000    4.49   0.00   0.00      0      0  145.6   0.03   0.03    0.0   0.30    0.02    0.02    0.01    0.00    0.00    0.00    0.00    0.00    0.00    0.00        0       0
 1989 121    22    14    0.6      0  0.012      8      1      0      4      9      9      0     0.0  0.000      0      0  0.000  0.000  0.000  0.000  0.000  0.000  0.000    4.50   0.00   0.00      0      0  146.1   0.04   0.04    0.0   0.31    0.02    0.02    0.01    0.00    0.00    0.00    0.00    0.00    0.00    0.00        0       0
 1989 122    23    15    0.7      0  0.014      9      1      0      5     11     11      0     0.0  0.000      0      0  0.000  0.000  0.000  0.000  0.000  0.000  0.000    4.50   0.00   0.00      0      0  146.4   0.04   0.04    0.0   0.33    0.02    0.02    0.02    0.00    0.00    0.00    0.00    0.00    0.00    0.00        0       0
 1989 123    24    16    0.9      0  0.016     11      1      0      5     12     12      0     0.0  0.000      0      0  0.000  0.000  0.000  0.000  0.000  0.000  0.000    4.50   0.00   0.00      0      0  147.6   0.04   0.04    0.0   0.35    0.02    0.02    0.02    0.00    0.00    0.00    0.00    0.00    0.00    0.00        0       0
 1989 124    25    17    1.1      0  0.018     12      1      0      5     14     14      0     0.0  0.000      0      0  0.000  0.000  0.000  0.000  0.000  0.000  0.000    4.50   0.00   0.00      0      0  148.5   0.05   0.04    0.0   0.37    0.02    0.03    0.02    0.00    0.00    0.00    0.00    0.00    0.00    0.00        0       0
 1989 125    26    18    1.4      0  0.021     14      2      0      6     15     15      0     0.0  0.000      0      0  0.000  0.000  0.000  0.000  0.000  0.000  0.000    4.51   0.00   0.00      0      0  150.2   0.05   0.05    0.0   0.39    0.02    0.03    0.02    0.00    0.00    0.00    0.00    0.00    0.00    0.00        0       0
 1989 126    27    19    1.6      0  0.024     16      2      0      7     18     18      0     0.0  0.000      0      0  0.000  0.000  0.000  0.000  0.000  0.000  0.000    4.51   0.00   0.00      0      0  155.1   0.06   0.05    0.0   0.40    0.02    0.03    0.02    0.00    0.00    0.00    0.00    0.00    0.00    0.00        0       0
 1989 127    28    20    1.9      0  0.027     18      2      0      7     20     20      0     0.0  0.000      0      0  0.000  0.000  0.000  0.000  0.000  0.000  0.000    4.51   0.00   0.00      0      0  154.5   0.07   0.06    0.0   0.42    0.02    0.03    0.02    0.01    0.00    0.00    0.00    0.00    0.00    0.00        0       0
 1989 128    29    21    2.1      0  0.032     20      2      0      8     23     23      0     0.0  0.000      0      0  0.000  0.000  0.000  0.000  0.000  0.000  0.000    4.51   0.00   0.00      0      0  155.8   0.07   0.06    0.0   0.44    0.02    0.04    0.03    0.01    0.00    0.00    0.00    0.00    0.00    0.00        0       0
 1989 129    30    22    2.4      0  0.038     24      3      0      9     26     26      0     0.0  0.000      0      0  0.000  0.000  0.000  0.000  0.000  0.000  0.000    4.37   0.00   0.00      0      0  161.4   0.08   0.07    0.0   0.46    0.03    0.04    0.03    0.01    0.00    0.00    0.00    0.00    0.00    0.00        0       0
 1989 130    31    23    2.5      0  0.042     26      3      0     10     29     29      0     0.0  0.000      0      0  0.000  0.000  0.000  0.000  0.000  0.000  0.000    4.45   0.00   0.00      0      0  160.7   0.08   0.07    0.0   0.48    0.03    0.04    0.03    0.01    0.00    0.00    0.00    0.00    0.00    0.00        0       0
 1989 131    32    24    2.7      0  0.045     28      4      0     12     32     32      0     0.0  0.000      0      0  0.000  0.000  0.000  0.000  0.000  0.000  0.000    4.47   0.00   0.00      0      0  157.6   0.09   0.08    0.0   0.49    0.04    0.05    0.04    0.01    0.01    0.00    0.00    0.00    0.00    0.00        0       0
 1989 132    33    25    2.8      0  0.048     31      4      0     13     35     35      0     0.0  0.000      0      0  0.000  0.000  0.000  0.000  0.000  0.000  0.000    4.48   0.00   0.00      0      0  155.2   0.09   0.08    0.0   0.50    0.04    0.05    0.04    0.02    0.01    0.00    0.00    0.00    0.00    0.00        0       0
 1989 133    34    26    2.9      0  0.051     33      5      0     14     38     38      0     0.0  0.000      0      0  0.000  0.000  0.000  0.000  0.000  0.000  0.000    4.48   0.00   0.00      0      0  153.8   0.09   0.08    0.0   0.51    0.04    0.06    0.04    0.02    0.01    0.00    0.00    0.00    0.00    0.00        0       1
 1989 134    35    27    3.1      0  0.054     36      6      0     16     41     41      0     0.0  0.000      0      0  0.000  0.000  0.000  0.000  0.000  0.000  0.000    4.49   0.00   0.00      0      0  152.0   0.10   0.08    0.0   0.52    0.04    0.06    0.05    0.02    0.02    0.00    0.00    0.00    0.00    0.00        0       1
 1989 135    36    28    3.2      0  0.058     38      7      0     19     45     45      0     0.0  0.000      0      0  0.000  0.000  0.000  0.000  0.000  0.000  0.000    4.49   0.00   0.00      0      0  151.8   0.10   0.08    0.0   0.54    0.04    0.07    0.06    0.03    0.02    0.00    0.00    0.00    0.00    0.00        0       1
 1989 136    37    29    3.3      0  0.060     40      8      0     22     48     48      0     0.0  0.000      0      0  0.000  0.000  0.000  0.000  0.000  0.000  0.000    4.49   0.00   0.00      0      0  151.9   0.10   0.09    0.0   0.55    0.04    0.08    0.06    0.04    0.03    0.00    0.00    0.00    0.00    0.00        0       1
 1989 137    38    30    3.4      0  0.063     42      9      0     24     52     52      0     0.0  0.000      0      0  0.000  0.000  0.000  0.000  0.000  0.000  0.000    4.49   0.00   0.00      0      0  150.4   0.10   0.09    0.0   0.56    0.04    0.09    0.07    0.04    0.03    0.01    0.00    0.00    0.00    0.00        0       1
 1989 138    39    31    3.6      0  0.068     45     12      0     28     57     57      0     0.0  0.000      0      0  0.000  0.000  0.000  0.000  0.000  0.000  0.000    4.50   0.00   0.00      0      0  150.5   0.11   0.09    0.0   0.58    0.04    0.10    0.08    0.05    0.04    0.01    0.00    0.00    0.00    0.00        0       1
 1989 139    40    32    3.8      0  0.072     48     15      0     34     63     63      0     0.0  0.000      0      0  0.000  0.000  0.000  0.000  0.000  0.000  0.000    4.50   0.00   0.00      0      0  150.5   0.11   0.09    0.0   0.60    0.06    0.12    0.09    0.06    0.05    0.02    0.00    0.00    0.00    0.00        0       1
 1989 140    41    33    4.0      0  0.076     51     18      0     40     69     69      0     0.0  0.000      0      0  0.000  0.000  0.000  0.000  0.000  0.000  0.000    4.50   0.00   0.00      0      0  150.2   0.12   0.10    0.0   0.61    0.06    0.13    0.11    0.07    0.06    0.02    0.00    0.00    0.00    0.00        0       1
 1989 141    42    34    4.1      0  0.085     56     21      0     44     77     77      0     0.0  0.000      0      0  0.000  0.000  0.000  0.000  0.000  0.000  0.000    4.51   0.00   0.00      0      0  151.5   0.13   0.10    0.0   0.63    0.06    0.15    0.12    0.08    0.07    0.03    0.00    0.00    0.00    0.00        0       1
 1989 142    43    35    4.3      0  0.095     62     24      0     50     87     87      0     0.0  0.000      0      0  0.000  0.000  0.000  0.000  0.000  0.000  0.000    4.51   0.00   0.00      0      0  152.5   0.13   0.11    0.0   0.65    0.06    0.16    0.13    0.09    0.08    0.04    0.01    0.00    0.00    0.00        0       2
 1989 143    44    36    4.5      0  0.104     69     28      0     56     97     97      0     0.0  0.000      0      0  0.000  0.000  0.000  0.000  0.000  0.000  0.000    4.51   0.00   0.00      0      0  152.2   0.14   0.11    0.0   0.67    0.06    0.18    0.15    0.10    0.09    0.05    0.01    0.00    0.00    0.00        0       2
 1989 144    45    37    4.7      0  0.115     75     34      0     64    109    109      0     0.0  0.000      0      0  0.000  0.000  0.000  0.000  0.000  0.000  0.000    4.51   0.00   0.00      0      0  153.2   0.15   0.12    0.0   0.69    0.06    0.21    0.17    0.11    0.10    0.05    0.02    0.00    0.00    0.00        0       2
 1989 145    46    38    4.8      0  0.124     81     39      0     72    120    120      0     0.0  0.000      0      0  0.000  0.000  0.000  0.000  0.000  0.000  0.000    4.51   0.00   0.00      0      0  152.1   0.16   0.13    0.0   0.71    0.08    0.22    0.18    0.12    0.12    0.06    0.03    0.00    0.00    0.00        0       3
 1989 146    47    39    4.9      0  0.132     87     45      0     81    132    132      0     0.0  0.000      0      0  0.000  0.000  0.000  0.000  0.000  0.000  0.000    4.52   0.00   0.00      0      0  151.8   0.17   0.13    0.0   0.73    0.08    0.25    0.20    0.14    0.13    0.07    0.04    0.00    0.00    0.00        0       3
 1989 147    48    40    5.1      0  0.151     99     49      0     87    149    149      0     0.0  0.000      0      0  0.000  0.000  0.000  0.000  0.000  0.000  0.000    4.52   0.00   0.00      0      0  151.6   0.18   0.14    0.0   0.74    0.08    0.27    0.22    0.15    0.14    0.08    0.05    0.00    0.00    0.00        0       4
 1989 148    49    41    5.2      0  0.172    113     54      0     94    168    168      0     0.0  0.000      0      0  0.000  0.000  0.000  0.000  0.000  0.000  0.000    4.52   0.00   0.00      0      0  152.0   0.18   0.15    0.0   0.76    0.08    0.29    0.23    0.16    0.15    0.09    0.05    0.00    0.00    0.00        0       4
 1989 149    50    42    5.4      0  0.197    129     60      0    102    189    189      0     0.0  0.000      0      0  0.000  0.000  0.000  0.000  0.000  0.000  0.000    4.52   0.00   0.00      0      0  152.5   0.19   0.15    0.0   0.78    0.08    0.31    0.25    0.17    0.17    0.10    0.06    0.01    0.00    0.00        0       5
 1989 150    51    43    5.5      0  0.216    144     66      0    109    210    210      0     0.0  0.000      0      0  0.000  0.000  0.000  0.000  0.000  0.000  0.000    4.52   0.00   0.00      0      0  150.5   0.20   0.16    0.0   0.80    0.08    0.33    0.27    0.19    0.18    0.10    0.07    0.01    0.00    0.00        0       5
 1989 151    52    44    5.6      0  0.234    157     72      0    116    229    229      0     0.0  0.000      0      0  0.000  0.000  0.000  0.000  0.000  0.000  0.000    4.52   0.00   0.00      0      0  148.5   0.21   0.16    0.0   0.81    0.08    0.35    0.28    0.20    0.19    0.11    0.08    0.01    0.00    0.00        0       6
 1989 152    53    45    5.8      0  0.260    176     80      0    126    256    256      0     0.0  0.000      0      0  0.000  0.000  0.000  0.000  0.000  0.000  0.000    4.52   0.00   0.00      0      0  147.9   0.21   0.17    0.0   0.83    0.08    0.37    0.30    0.21    0.20    0.12    0.09    0.02    0.00    0.00        0       6
 1989 153    54    46    5.9      0  0.288    196     89      0    136    285    285      0     0.0  0.000      0      0  0.000  0.000  0.000  0.000  0.000  0.000  0.000    4.52   0.00   0.00      0      0  147.1   0.22   0.18    0.0   0.85    0.08    0.40    0.32    0.23    0.22    0.13    0.10    0.02    0.00    0.00        0       7
 1989 154    55    47    6.0      0  0.322    218    100      0    148    319    319      0     0.0  0.000      0      0  0.000  0.000  0.000  0.000  0.000  0.000  0.000    4.52   0.00   0.00      0      0  147.5   0.23   0.18    0.0   0.87    0.08    0.43    0.35    0.25    0.24    0.15    0.11    0.03    0.00    0.00        0       8
 1989 155    56    48    6.2      0  0.359    243    113      0    160    356    356      0     0.0  0.000      0      0  0.000  0.000  0.000  0.000  0.000  0.000  0.000    4.52   0.00   0.00      0      0  148.0   0.24   0.19    0.0   0.89    0.08    0.46    0.37    0.27    0.26    0.16    0.13    0.03    0.00    0.00        0       9
 1989 156    57    49    6.3      0  0.401    270    128      0    175    398    398      0     0.0  0.000      0      0  0.000  0.000  0.000  0.000  0.000  0.000  0.000    4.52   0.00   0.00      0      0  148.6   0.25   0.20    0.0   0.91    0.12    0.49    0.40    0.29    0.28    0.17    0.14    0.04    0.00    0.00        0      10
 1989 157    58    50    6.5      0  0.441    297    144      0    189    441    441      0     0.0  0.000      0      0  0.000  0.000  0.000  0.000  0.000  0.000  0.000    4.52   0.00   0.00      0      0  148.4   0.26   0.20    0.0   0.92    0.15    0.53    0.43    0.31    0.30    0.19    0.15    0.05    0.00    0.00        0      11
 1989 158    59    51    6.6      0  0.486    327    162      0    205    489    489      0     0.0  0.000      0      0  0.000  0.000  0.000  0.000  0.000  0.000  0.000    4.52   0.00   0.00      0      0  148.6   0.27   0.21    0.0   0.94    0.15    0.57    0.46    0.33    0.32    0.20    0.17    0.06    0.00    0.00        0      12
 1989 159    60    52    6.8      0  0.533    359    183      0    222    541    541      0     0.0  0.000      0      0  0.000  0.000  0.000  0.000  0.000  0.000  0.000    4.52   0.00   0.00      0      0  148.8   0.28   0.22    0.0   0.96    0.15    0.61    0.50    0.36    0.35    0.22    0.19    0.07    0.00    0.00        0      13
 1989 160    61    53    6.9      0  0.584    392    205      0    241    598    598      0     0.0  0.000      0      0  0.000  0.000  0.000  0.000  0.000  0.000  0.000    4.52   0.00   0.00      0      0  149.0   0.29   0.23    0.0   0.98    0.15    0.65    0.53    0.38    0.38    0.24    0.21    0.09    0.01    0.00        0      14
 1989 161    62    54    7.1      0  0.640    428    231      0    260    659    659      0     0.0  0.000      0      0  0.000  0.000  0.000  0.000  0.000  0.000  0.000    4.52   0.00   0.00      0      0  149.5   0.30   0.23    0.0   1.00    0.14    0.70    0.57    0.41    0.41    0.26    0.23    0.10    0.01    0.00        0      16
 1989 162    63    55    7.2      0  0.698    466    259      0    281    724    724      0     0.0  0.000      0      0  0.000  0.000  0.000  0.000  0.000  0.000  0.000    4.53   0.00   0.00      0      0  150.0   0.31   0.24    0.0   1.02    0.14    0.75    0.62    0.45    0.44    0.28    0.25    0.11    0.01    0.00        0      18
 1989 163    64    56    7.4      0  0.759    505    290      0    303    794    794      0     0.0  0.000      0      0  0.000  0.000  0.000  0.000  0.000  0.000  0.000    4.53   0.00   0.00      0      0  150.5   0.32   0.25    0.0   1.04    0.21    0.80    0.65    0.47    0.47    0.30    0.27    0.12    0.02    0.00        0      19
 1989 164    65    57    7.5      0  0.830    544    323      0    326    867    867      0     0.0  0.000      0      0  0.000  0.000  0.000  0.000  0.000  0.000  0.000    4.53   0.00   0.00      0      0  152.4   0.33   0.26    0.0   1.06    0.25    0.85    0.69    0.50    0.50    0.32    0.29    0.14    0.02    0.00        0      21
 1989 165    66    58    7.7      0  0.902    586    358      0    349    945    945      0     0.0  0.000      0      0  0.000  0.000  0.000  0.000  0.000  0.000  0.000    4.53   0.00   0.00      0      0  153.8   0.35   0.27    0.0   1.08    0.25    0.91    0.74    0.54    0.53    0.34    0.31    0.15    0.03    0.00        0      23
 1989 166    67    59    7.8      0  0.975    630    396      0    373   1026   1026      0     0.0  0.000      0      0  0.000  0.000  0.000  0.000  0.000  0.000  0.000    4.53   0.00   0.00      0      0  154.9   0.36   0.28    0.0   1.10    0.24    0.97    0.79    0.57    0.57    0.37    0.34    0.17    0.04    0.00        0      25
 1989 167    68    60    8.0      0  1.052    675    437      0    398   1113   1113      0     0.0  0.000      0      0  0.000  0.000  0.000  0.000  0.000  0.000  0.000    4.53   0.00   0.00      0      0  155.8   0.37   0.29    0.0   1.12    0.24    1.03    0.84    0.61    0.60    0.39    0.36    0.18    0.05    0.00        0      28
 1989 168    69    61    8.1      1  1.132    722    481      0    423   1203   1203      0     0.0  0.000      0      0  0.000  0.000  0.000  0.000  0.000  0.000  0.000    4.53   0.00   0.00      0      0  156.7   0.38   0.29    0.0   1.14    0.24    1.09    0.89    0.65    0.64    0.42    0.39    0.20    0.06    0.00        0      30
 1989 169    70    62    8.3      1  1.210    770    526      0    449   1296   1296      0     0.0  0.000      0      0  0.000  0.000  0.000  0.000  0.000  0.000  0.000    4.53   0.00   0.00      0      0  157.1   0.40   0.30    0.0   1.16    0.23    1.15    0.94    0.68    0.68    0.44    0.41    0.21    0.07    0.01        0      33
 1989 170    71    63    8.4      1  1.316    812    565      0    471   1377   1377      0     0.0  0.000      0      0  0.000  0.000  0.000  0.000  0.000  0.000  0.000    4.53   0.00   0.00      0      0  162.1   0.41   0.31    0.0   1.18    0.23    1.20    0.98    0.72    0.71    0.46    0.43    0.22    0.07    0.01        0      36
 1989 171    72    64    8.6      1  1.411    863    614      0    498   1477   1477      0     0.0  0.000      0      0  0.000  0.000  0.000  0.000  0.000  0.000  0.000    4.53   0.00   0.00      0      0  163.6   0.42   0.32    0.0   1.20    0.22    1.26    1.03    0.76    0.75    0.49    0.46    0.24    0.08    0.02        0      39
 1989 172    73    65    8.8      1  1.508    917    667      0    527   1583   1583      0     0.0  0.000      0      0  0.000  0.000  0.000  0.000  0.000  0.000  0.000    4.54   0.00   0.00      0      0  164.5   0.44   0.33    0.0   1.22    0.22    1.33    1.09    0.80    0.79    0.52    0.49    0.26    0.09    0.04        2      42
 1989 173    74    66    8.9      1  1.595    973    723      0    559   1696   1696      0     0.0  0.000      0      0  0.000  0.000  0.000  0.000  0.000  0.000  0.000    4.54   0.00   0.00      0      0  163.9   0.45   0.34    0.0   1.24    0.22    1.41    1.15    0.84    0.83    0.55    0.52    0.28    0.10    0.05        4      46
 1989 174    75    67    9.1      1  1.688   1032    782      0    591   1814   1814      0     0.0  0.000      0      0  0.000  0.000  0.000  0.000  0.000  0.000  0.000    4.54   0.00   0.00      0      0  163.5   0.47   0.35    0.0   1.26    0.21    1.48    1.21    0.89    0.88    0.58    0.55    0.30    0.11    0.06        6      49
 1989 175    76    68    9.2      1  1.784   1093    843      0    625   1936   1936      0     0.0  0.000      0      0  0.000  0.000  0.000  0.000  0.000  0.000  0.000    4.54   0.00   0.00      0      0  163.2   0.48   0.36    0.0   1.27    0.21    1.56    1.27    0.93    0.93    0.61    0.58    0.32    0.13    0.07        8      53
 1989 176    77    69    9.4      1  1.877   1154    906      0    660   2060   2060      0     0.0  0.000      0      0  0.000  0.011  0.000  0.000  0.000  0.000  0.000    4.54   0.00   0.00      0      0  162.6   0.49   0.37    0.0   1.29    0.21    1.64    1.34    0.98    0.98    0.64    0.61    0.34    0.14    0.08       10      57
 1989 177    78    70    9.5      1  1.904   1200    955      0    720   2155   2155      0     0.0  0.000      0      0  0.000  0.215  0.000  0.000  0.000  0.000  0.000    4.54   0.00   0.00      0      0  158.6   0.50   0.38    0.0   1.31    0.20    1.78    1.45    1.07    1.06    0.70    0.67    0.37    0.16    0.10       14      60
[...]
 1989 206   107    99   13.0      5  2.935   2243   2929    208   1310   5172   6371    830    25.1  0.033   1199     73  0.000  0.000  0.107  0.000  0.000  0.000  0.000    2.81  17.35   0.19      0   1199  130.9   0.82   0.60    0.0   1.51    1.48    2.98    2.44    1.79    1.79    1.19    1.17    0.68    0.33    0.29      563     275
 1989 207   108   100   13.1      5  2.911   2234   2962    243   1305   5197   6507    893    27.3  0.037   1310     75  0.000  0.000  0.161  0.000  0.000  0.000  0.000    2.73  18.57   0.20      0   1310  130.3   0.83   0.61    0.0   1.51    1.45    2.97    2.43    1.79    1.78    1.19    1.16    0.68    0.33    0.29      597     285
 1989 208   109   101   13.1      5  2.894   2222   2972    285   1301   5194   6634    962    29.7  0.043   1440     79  0.000  0.000  0.053  0.000  0.000  0.000  0.000    2.67  19.80   0.22      0   1440  130.2   0.84   0.61    0.0   1.51    1.46    2.96    2.42    1.79    1.78    1.18    1.16    0.68    0.33    0.29      633     294
 1989 209   110   102   13.2      5  2.866   2208   2993    335   1291   5202   6797   1014    33.0  0.049   1595     85  0.000  0.000  0.000  0.000  0.000  0.000  0.000    2.60  20.97   0.23      0   1595  129.8   0.84   0.61    0.0   1.51    1.45    2.94    2.41    1.77    1.77    1.18    1.15    0.67    0.33    0.28      662     302
 1989 210   111   103   13.2      5  2.837   2202   3037    383   1281   5238   6968   1034    37.1  0.055   1729     94  0.000  0.000  0.069  0.000  0.000  0.000  0.000    2.52  22.17   0.25      0   1729  128.9   0.85   0.62    0.0   1.51    1.44    2.92    2.39    1.76    1.76    1.17    1.14    0.67    0.33    0.28      680     311
 1989 211   112   104   13.3      5  2.810   2190   3065    431   1271   5255   7105   1097    39.3  0.061   1850    101  0.000  0.000  0.135  0.000  0.000  0.000  0.000    2.45  23.29   0.26      0   1850  128.3   0.85   0.62    0.0   1.51    1.43    2.90    2.38    1.75    1.74    1.16    1.14    0.66    0.32    0.28      710     320
 1989 212   113   105   13.3      5  2.820   2178   3050    478   1282   5227   7125   1377    34.7  0.067   1898     99  0.000  0.000  0.066  0.000  0.000  0.000  0.000    2.42  25.18   0.27      0   1898  129.5   0.85   0.62    0.0   1.51    1.48    2.92    2.39    1.76    1.76    1.17    1.15    0.67    0.33    0.28      797     329
 1989 213   114   106   13.3      5  2.796   2178   3109    535   1272   5287   7306   1377    38.9  0.073   2020    103  0.000  0.000  0.116  0.000  0.000  0.000  0.000    2.35  26.50   0.28      0   2020  128.4   0.85   0.62    0.0   1.51    1.47    2.90    2.38    1.75    1.75    1.16    1.14    0.66    0.33    0.28      807     338
 1989 214   115   107   13.4      5  2.772   2168   3134    597   1263   5302   7406   1528    39.1  0.081   2104    105  0.000  0.000  0.197  0.000  0.000  0.000  0.000    2.28  28.35   0.28      0   2104  127.9   0.86   0.63    0.0   1.51    1.46    2.89    2.36    1.74    1.74    1.15    1.13    0.66    0.32    0.28      860     346
 1989 215   116   108   13.4      5  2.747   2152   3140    668   1252   5292   7507   1626    41.1  0.089   2216    109  0.000  0.000  0.127  0.000  0.000  0.000  0.000    2.22  30.17   0.30      0   2216  127.7   0.86   0.63    0.0   1.51    1.45    2.87    2.35    1.73    1.72    1.15    1.12    0.65    0.32    0.28      899     355
 1989 216   117   109   13.4      5  2.724   2133   3138    747   1243   5271   7613   1712    43.6  0.098   2342    114  0.000  0.000  0.069  0.000  0.000  0.000  0.000    2.17  31.88   0.31      0   2342  127.7   0.86   0.63    0.0   1.51    1.44    2.85    2.33    1.72    1.71    1.14    1.12    0.65    0.32    0.28      930     364
 1989 217   118   110   13.4      5  2.702   2124   3161    826   1233   5285   7714   1953    42.3  0.107   2429    117  0.000  0.000  0.107  0.000  0.000  0.000  0.000    2.11  34.00   0.31      0   2429  127.3   0.86   0.63    0.0   1.51    1.43    2.83    2.31    1.70    1.70    1.13    1.11    0.65    0.32    0.27      980     372
 1989 218   119   111   13.4      5  2.682   2112   3173    910   1223   5285   7802   2076    43.8  0.117   2517    117  0.000  0.000  0.171  0.000  0.000  0.000  0.000    2.05  36.16   0.32      0   2517  127.0   0.87   0.63    0.0   1.51    1.42    2.81    2.30    1.69    1.69    1.12    1.10    0.64    0.32    0.27     1016     381
 1989 219   120   112   13.4      5  2.662   2101   3187   1005   1214   5288   7919   2076    48.4  0.127   2631    113  0.000  0.000  0.186  0.000  0.000  0.000  0.000    1.99  38.19   0.33      0   2631  126.7   0.87   0.63    0.0   1.51    1.41    2.79    2.28    1.68    1.68    1.11    1.09    0.64    0.31    0.27     1025     389
 1989 220   121   113   13.4      5  2.643   2089   3197   1098   1205   5286   8024   2083    52.7  0.137   2738    115  0.000  0.000  0.204  0.000  0.000  0.000  0.000    1.94  40.10   0.34      0   2738  126.5   0.87   0.63    0.0   1.51    1.40    2.77    2.27    1.67    1.66    1.11    1.08    0.63    0.31    0.27     1036     398
 1989 221   122   114   13.5      5  2.624   2077   3205   1197   1195   5282   8122   2091    57.2  0.147   2840    116  0.000  0.000  0.215  0.000  0.000  0.000  0.000    1.89  42.14   0.35      0   2840  126.4   0.87   0.63    0.0   1.51    1.39    2.75    2.25    1.66    1.65    1.10    1.08    0.63    0.31    0.27     1047     406
 1989 222   123   115   13.5      5  2.607   2058   3193   1304   1185   5252   8194   2106    61.9  0.159   2942    115  0.000  0.000  0.187  0.000  0.000  0.000  0.000    1.85  44.33   0.36      0   2942  126.7   0.87   0.63    0.0   1.51    1.38    2.73    2.23    1.65    1.64    1.09    1.07    0.62    0.31    0.26     1061     415
 1989 223   124   116   13.5      5  2.591   2043   3187   1405   1176   5229   8269   2125    66.2  0.170   3040    115  0.000  0.000  0.162  0.000  0.000  0.000  0.000    1.81  46.24   0.37      0   3040  126.8   0.87   0.63    0.0   1.51    1.37    2.71    2.22    1.63    1.63    1.08    1.06    0.62    0.30    0.26     1075     423
 1989 224   125   117   13.5      5  2.582   2021   3156   1499   1172   5177   8316   2154    69.6  0.180   3139    113  0.000  0.000  0.095  0.000  0.000  0.000  0.000    1.79  47.76   0.38      0   3139  127.7   0.87   0.63    0.0   1.51    1.38    2.70    2.21    1.63    1.62    1.08    1.06    0.62    0.30    0.26     1092     431
 1989 225   126   118   13.5      5  2.568   2018   3180   1585   1164   5199   8410   2172    73.0  0.189   3211    111  0.000  0.000  0.177  0.000  0.000  0.000  0.000    1.74  49.37   0.38      0   3211  127.3   0.87   0.63    0.0   1.51    1.37    2.68    2.20    1.62    1.61    1.07    1.05    0.61    0.30    0.26     1104     439
 1989 226   127   119   13.5      5  2.564   1999   3148   1669   1164   5147   8441   2174    76.8  0.198   3294    106  0.000  0.000  0.201  0.000  0.000  0.000  0.000    1.73  50.67   0.39      0   3294  128.3   0.87   0.63    0.0   1.51    1.39    2.68    2.20    1.62    1.61    1.07    1.05    0.61    0.30    0.26     1111     448
 1989 227   128   120   13.5      5  2.551   1992   3159   1757   1156   5151   8527   2174    80.9  0.206   3375    103  0.000  0.000  0.173  0.000  0.000  0.000  0.000    1.69  52.07   0.40      0   3375  128.1   0.87   0.63    0.0   1.51    1.38    2.67    2.18    1.61    1.60    1.07    1.05    0.61    0.30    0.26     1116     455
 1989 228   129   121   13.5      5  2.540   1977   3144   1849   1147   5121   8583   2174    85.1  0.215   3462     99  0.000  0.000  0.321  0.000  0.000  0.000  0.000    1.66  53.41   0.40      0   3462  128.5   0.87   0.64    0.0   1.51    1.37    2.65    2.17    1.60    1.59    1.06    1.04    0.60    0.30    0.26     1121     463
 1989 229   130   122   13.5      5  2.528   1961   3129   1945   1139   5091   8643   2174    89.5  0.225   3553     95  0.000  0.000  0.375  0.000  0.000  0.000  0.000    1.64  54.76   0.41      0   3553  128.9   0.87   0.64    0.0   1.51    1.36    2.63    2.15    1.59    1.58    1.05    1.03    0.60    0.30    0.26     1126     471
 1989 230   131   123   13.5      5  2.516   1941   3101   2047   1129   5042   8690   2174    94.2  0.236   3648     91  0.000  0.000  0.304  0.000  0.000  0.000  0.000    1.61  56.10   0.42      0   3648  129.6   0.87   0.64    0.0   1.51    1.35    2.61    2.14    1.57    1.57    1.04    1.02    0.60    0.29    0.25     1131     479
 1989 231   132   124   13.5      5  2.506   1924   3077   2144   1121   5001   8742   2174    98.7  0.245   3741     88  0.000  0.000  0.231  0.000  0.000  0.000  0.000    1.59  57.33   0.43      0   3741  130.3   0.87   0.64    0.0   1.51    1.34    2.59    2.12    1.56    1.56    1.04    1.02    0.59    0.29    0.25     1135     487
 1989 232   133   125   13.5      5  2.497   1906   3050   2244   1113   4957   8791   2174   103.2  0.255   3835     88  0.000  0.000  0.219  0.000  0.000  0.000  0.000    1.57  58.51   0.44      0   3835  131.0   0.87   0.64    0.0   1.51    1.33    2.58    2.11    1.55    1.55    1.03    1.01    0.59    0.29    0.25     1139     494
 1989 233   134   126   13.5      5  2.489   1894   3035   2332   1105   4929   8848   2174   107.3  0.264   3919     84  0.000  0.000  0.334  0.000  0.000  0.000  0.000    1.55  59.51   0.44      0   3919  131.4   0.87   0.64    0.0   1.51    1.32    2.56    2.10    1.54    1.54    1.02    1.00    0.58    0.29    0.25     1143     501
 1989 234   135   127   13.5      5  2.481   1879   3013   2413   1099   4892   8888   2174   111.0  0.271   3996     82  0.000  0.000  0.456  0.000  0.000  0.000  0.000    1.54  60.39   0.45      0   3996  132.0   0.88   0.64    0.0   1.51    1.31    2.55    2.08    1.54    1.53    1.02    1.00    0.58    0.29    0.25     1146     507
 1989 235   136   128   13.5      5  2.474   1866   2996   2488   1092   4862   8929   2174   114.5  0.279   4067     82  0.000  0.000  0.463  0.000  0.000  0.000  0.000    1.52  61.18   0.46      0   4067  132.6   0.88   0.64    0.0   1.51    1.31    2.53    2.07    1.53    1.52    1.01    0.99    0.58    0.28    0.25     1149     513
 1989 236   137   129   13.5      5  2.466   1852   2974   2567   1085   4826   8968   2174   118.1  0.286   4142     81  0.000  0.000  0.491  0.000  0.000  0.000  0.000    1.51  61.97   0.46      0   4142  133.2   0.88   0.64    0.0   1.51    1.30    2.52    2.06    1.52    1.51    1.01    0.99    0.58    0.28    0.25     1152     520
 1989 237   138   130   13.5      5  2.459   1838   2952   2643   1078   4789   9003   2174   121.6  0.294   4214     81  0.000  0.000  0.501  0.000  0.000  0.000  0.000    1.50  62.71   0.47      0   4214  133.8   0.88   0.64    0.0   1.51    1.28    2.50    2.05    1.51    1.50    1.00    0.98    0.57    0.28    0.24     1155     527
 1989 238   139   131   13.5      5  2.453   1823   2926   2715   1071   4749   9032   2174   124.9  0.301   4283     81  0.000  0.000  0.492  0.000  0.000  0.000  0.000    1.48  63.39   0.47      0   4283  134.5   0.88   0.64    0.0   1.51    1.26    2.49    2.04    1.50    1.50    0.99    0.98    0.57    0.28    0.24     1157     533
 1989 239   140   132   13.6      5  2.447   1807   2896   2792   1063   4703   9059   2174   128.4  0.308   4356     81  0.000  0.000  0.446  0.000  0.000  0.000  0.000    1.48  64.09   0.48      0   4356  135.4   0.88   0.64    0.0   1.51    1.24    2.47    2.02    1.49    1.49    0.99    0.97    0.57    0.28    0.24     1160     540
 1989 240   141   133   13.6      5  2.441   1788   2856   2874   1056   4645   9080   2174   132.2  0.317   4436     81  0.000  0.000  0.241  0.000  0.000  0.000  0.000    1.47  64.80   0.49      0   4436  136.5   0.88   0.64    0.0   1.51    1.22    2.46    2.01    1.48    1.48    0.98    0.96    0.56    0.28    0.24     1162     547
 1989 241   142   134   13.6      5  2.436   1781   2851   2928   1049   4632   9119   2174   134.7  0.321   4487     81  0.000  0.000  0.328  0.000  0.000  0.000  0.000    1.46  65.27   0.49      0   4487  136.8   0.88   0.64    0.0   1.51    1.20    2.44    2.00    1.47    1.47    0.98    0.96    0.56    0.28    0.24     1164     553
 1989 242   143   135   13.6      5  2.430   1768   2828   2984   1041   4595   9135   2174   137.3  0.327   4540     81  0.000  0.000  0.550  0.000  0.000  0.000  0.000    1.45  65.73   0.50      0   4540  137.5   0.88   0.64    0.0   1.51    1.18    2.43    1.99    1.46    1.46    0.97    0.95    0.56    0.27    0.24     1167     561
 1989 243   144   136   13.6      5  2.424   1753   2800   3042   1033   4553   9149   2174   140.0  0.333   4595     81  0.000  0.000  0.443  0.000  0.000  0.000  0.000    1.44  66.21   0.50      0   4595  138.3   0.88   0.64    0.0   1.51    1.16    2.41    1.97    1.45    1.45    0.96    0.95    0.55    0.27    0.23     1169     568
 1989 244   145   137   13.6      5  2.419   1739   2775   3096   1026   4514   9161   2174   142.4  0.338   4647     81  0.000  0.000  0.378  0.000  0.000  0.000  0.000    1.43  66.64   0.51      0   4647  139.1   0.88   0.64    0.0   1.51    1.14    2.40    1.96    1.45    1.44    0.96    0.94    0.55    0.27    0.23     1171     575
 1989 245   146   138   13.6      5  2.414   1725   2746   3149   1018   4471   9167   2174   144.9  0.343   4696     81  0.000  0.000  0.462  0.000  0.000  0.000  0.000    1.42  67.04   0.51      0   4696  140.0   0.88   0.64    0.0   1.51    1.13    2.38    1.95    1.44    1.43    0.95    0.93    0.54    0.27    0.23     1173     583
 1989 246   147   139   13.6      5  2.410   1707   2707   3207   1011   4415   9168   2174   147.6  0.350   4753     81  0.000  0.000  0.453  0.000  0.000  0.000  0.000    1.42  67.48   0.52      0   4753  141.2   0.88   0.64    0.0   1.51    1.12    2.36    1.94    1.43    1.42    0.95    0.93    0.54    0.27    0.23     1175     589
 1989 247   148   140   13.6      5  2.405   1696   2686   3255   1004   4382   9180   2174   149.7  0.355   4798     81  0.000  0.000  0.452  0.000  0.000  0.000  0.000    1.42  67.83   0.52      0   4798  141.9   0.88   0.64    0.0   1.51    1.11    2.35    1.92    1.42    1.41    0.94    0.92    0.54    0.26    0.23     1176     596
 1989 248   149   141   13.6      5  2.403   1681   2652   3295   1004   4334   9171   2174   151.6  0.359   4837     81  0.000  0.000  0.359  0.000  0.000  0.000  0.000    1.42  68.12   0.53      0   4837  142.9   0.88   0.64    0.0   1.51    1.12    2.35    1.92    1.42    1.41    0.94    0.92    0.54    0.26    0.23     1178     602
 1989 249   150   142   13.6      5  2.399   1675   2647   3329    997   4322   9191   2174   153.2  0.362   4869     81  0.000  0.000  0.405  0.000  0.000  0.000  0.000    1.41  68.38   0.53      0   4869  143.2   0.88   0.64    0.0   1.51    1.10    2.33    1.91    1.41    1.40    0.93    0.91    0.53    0.26    0.23     1179     609
 1989 250   151   143   13.6      5  2.396   1666   2628   3362    990   4294   9194   2174   154.7  0.366   4900     81  0.000  0.000  0.629  0.000  0.000  0.000  0.000    1.41  68.61   0.53      0   4900  143.8   0.88   0.64    0.0   1.51    1.08    2.32    1.90    1.40    1.39    0.93    0.91    0.53    0.26    0.23     1181     616
 1989 251   152   144   13.6      5  2.392   1653   2603   3401    983   4256   9194   2174   156.4  0.370   4937     81  0.000  0.000  0.523  0.000  0.000  0.000  0.000    1.40  68.88   0.54      0   4937  144.7   0.88   0.64    0.0   1.51    1.07    2.30    1.88    1.39    1.38    0.92    0.90    0.53    0.26    0.22     1182     623
 1989 252   153   145   13.6      5  2.389   1645   2586   3430    977   4231   9196   2174   157.8  0.373   4965     81  0.000  0.000  0.523  0.000  0.000  0.000  0.000    1.40  69.08   0.54      0   4965  145.3   0.88   0.64    0.0   1.51    1.05    2.29    1.87    1.38    1.38    0.92    0.90    0.52    0.26    0.22     1183     629
 1989 253   154   146   13.6      7  2.387   1632   2558   3464    971   4190   9188   2174   159.3  0.377   4998     81  0.000  0.050  0.516  0.000  0.000  0.000  0.000    1.40  69.31   0.54      0   4998  146.2   0.88   0.64    0.0   1.51    1.03    2.27    1.86    1.37    1.37    0.91    0.89    0.52    0.26    0.22     1184     635
 1989 254   155   147   13.6      7  2.361   1608   2539   3492    964   4148   9173   2174   160.7  0.381   5025     81  0.000  0.138  0.519  0.000  0.000  0.000  0.000    1.40  69.50   0.55      0   5025  146.8   0.88   0.64    0.0   1.51    1.02    2.26    1.85    1.37    1.36    0.91    0.89    0.52    0.26    0.22     1202     641
 1989 255   156   148   13.6      7  2.337   1582   2512   3523    958   4094   9149   2174   162.1  0.385   5055     81  0.000  0.265  0.470  0.000  0.000  0.000  0.000    1.40  69.69   0.55      0   5055  147.7   0.88   0.64    0.0   1.51    1.00    2.24    1.84    1.36    1.35    0.90    0.88    0.52    0.25    0.22     1220     647
 1989 256   157   149   13.6      7  2.312   1562   2504   3538    952   4066   9135   2174   162.8  0.387   5069     81  0.038  0.358  0.475  0.000  0.000  0.000  0.000    1.40  69.79   0.55      0   5069  148.0   0.88   0.64    0.0   1.51    0.99    2.22    1.83    1.35    1.35    0.90    0.88    0.51    0.25    0.22     1237     654
 1989 257   158   150   13.6      7  2.288   1536   2472   3549    949   4008   9087   2174   163.3  0.391   5079     81  0.318  0.546  0.563  0.000  0.000  0.000  0.000    1.40  69.87   0.56      0   5079  149.0   0.88   0.64    0.0   1.51    0.97    2.21    1.82    1.35    1.35    0.90    0.88    0.51    0.25    0.22     1254     661
 1989 258   159   151   13.6      7  2.264   1508   2437   3560    947   3945   9034   2174   163.8  0.394   5089     81  0.425  0.617  0.448  0.000  0.000  0.000  0.000    1.40  69.95   0.56      0   5089  150.1   0.88   0.64    0.0   1.51    0.96    2.19    1.81    1.35    1.34    0.90    0.88    0.51    0.25    0.22     1271     668
 1989 259   160   152   13.6      7  2.240   1478   2389   3570    950   3866   8965   2174   164.2  0.398   5099     81  0.507  0.671  0.291  0.000  0.000  0.000  0.000    1.41  70.01   0.57      0   5099  151.6   0.88   0.64    0.0   1.51    0.94    2.18    1.81    1.35    1.35    0.91    0.89    0.52    0.26    0.22     1288     677
 1989 260   161   153   13.6      7  2.217   1452   2350   3572    965   3802   8903   2174   164.3  0.401   5101     81  0.362  0.575  0.087  0.000  0.000  0.000  0.000    1.43  70.03   0.57      0   5101  152.7   0.88   0.64    0.0   1.51    0.93    2.18    1.82    1.37    1.37    0.93    0.91    0.53    0.27    0.23     1304     686
 1989 261   162   154   13.6      7  2.193   1431   2330   3572    972   3762   8863   2174   164.3  0.403   5101     81  0.466  0.644  0.243  0.000  0.000  0.000  0.000    1.44  70.03   0.58      0   5101  153.2   0.88   0.64    0.0   1.51    0.91    2.18    1.83    1.38    1.38    0.94    0.93    0.54    0.27    0.24     1320     695
 1989 262   163   155   13.7      7  2.171   1409   2300   3572    986   3709   8810   2174   164.3  0.405   5101     81  0.430  0.620  0.343  0.000  0.000  0.000  0.000    1.45  70.03   0.58      0   5101  154.1   0.88   0.64    0.0   1.51    0.90    2.18    1.84    1.40    1.40    0.96    0.95    0.56    0.28    0.25     1336     703
 1989 263   164   156   13.7      8  2.148   1388   2274   3572    998   3662   8763   2174   164.3  0.408   5101     81  0.424  0.616  0.109  0.000  0.000  0.000  0.000    1.46  70.03   0.58      0   5101  154.8   0.88   0.64    0.0   1.51    0.89    2.17    1.84    1.41    1.41    0.98    0.97    0.58    0.29    0.26     1351     711
