*Soil Inorganic Nitrogen daily output file

*DSSAT Cropping System Model Ver. 4.8.2.006 -  APR 10, 2025 22:06:00

*RUN   1        : Control - 350 ppm         CRGRO048 AZMC8901    1
 MODEL          : CRGRO048 - Cotton
 EXPERIMENT     : AZMC8901 CO 1989 FACE EXPERIMENT
 DATA PATH      :
 TREATMENT  1   : Control - 350 ppm         CRGRO048
  
!                                                                                                                                      NO3 (ppm) at soil dep. (cm):                                                    NH4 (ppm) at soil dep. (cm):                                                    Total Inorganic N @dep(ppm):
!                                                                                                                                       0-5    5-15   15-30   30-40   40-50   50-60   60-70   70-90  90-110 110-210     0-5    5-15   15-30   30-40   40-50   50-60   60-70   70-90  90-110 110-210     0-5    5-15   15-30   30-40   40-50   50-60   60-70   70-90  90-110 110-210
@YEAR DOY   DAS  NAPC  NI#M    NIAD    NITD    NHTD   NURTD    NMNC    NITC    NDNC    NIMC    AMLC   NNMNC    NUCM    NLCC    TDNC    NI1D    NI2D    NI3D    NI4D    NI5D    NI6D    NI7D    NI8D    NI9D    NI10    NH1D    NH2D    NH3D    NH4D    NH5D    NH6D    NH7D    NH8D    NH9D    NH10    NT1D    NT2D    NT3D    NT4D    NT5D    NT6D    NT7D    NT8D    NT9D    NT10    
 1989 099     0     0     0    31.5    31.4     0.0     0.0    0.00    0.00    0.00    0.00    0.00    0.00    0.00    0.00    0.00    3.00     3.0     3.0    2.00    2.00    1.00    1.00    1.00    0.75    0.50    0.00    0.00    0.00    0.00    0.00    0.00    0.00    0.00    0.00    0.00    3.00    3.00    3.00    2.00    2.00    1.00    1.00    1.00    0.75    0.50
 1989 100     1    67     1    84.2    50.2    34.0    14.8    0.52    0.01    0.00    0.00    0.00    0.52    0.00    0.00    0.00    2.53     3.2    12.8    2.01    1.99    1.01    1.00    1.00    0.75    0.50    0.02    0.02   17.57    0.01    0.01    0.01    0.01    0.01    0.00    0.00    2.55    3.26   30.42    2.02    2.00    1.02    1.01    1.01    0.75    0.51
 1989 101     2    67     1    91.9    67.2    24.7     7.5    1.04   17.05    0.00    0.00    0.00    1.04    0.00    0.00    0.00    2.54     3.3    21.6    2.06    1.99    1.02    1.00    1.01    0.75    0.50    0.03    0.03   12.56    0.02    0.02    0.01    0.01    0.02    0.01    0.01    2.58    3.28   34.19    2.08    2.01    1.03    1.01    1.03    0.76    0.51
 1989 102     3    67     1    96.0    79.0    17.0     3.9    1.54   28.89    0.00    0.00    0.00    1.54    0.00    0.00    0.00    2.56     3.3    27.6    2.14    1.99    1.03    1.01    1.01    0.75    0.51    0.04    0.03    8.41    0.04    0.02    0.01    0.01    0.03    0.01    0.01    2.60    3.30   36.04    2.17    2.01    1.04    1.02    1.04    0.76    0.52
 1989 103     4    67     1    98.4    86.7    11.7     2.1    2.03   36.57    0.00    0.00    0.00    2.03    0.00    0.00    0.00    2.58     3.3    31.4    2.23    2.00    1.04    1.01    1.02    0.76    0.51    0.04    0.04    5.54    0.04    0.02    0.02    0.02    0.03    0.01    0.01    2.63    3.32   36.94    2.28    2.02    1.06    1.03    1.05    0.77    0.52
 1989 104     5    67     1    99.8    91.6     8.1     1.1    2.51   41.55    0.00    0.00    0.00    2.51    0.00    0.00    0.00    2.61     3.3    33.8    2.34    2.00    1.05    1.02    1.04    0.76    0.51    0.04    0.04    3.63    0.05    0.03    0.02    0.02    0.03    0.01    0.01    2.65    3.33   37.38    2.39    2.03    1.07    1.04    1.07    0.77    0.53
 1989 105     6    67     1   100.7    94.9     5.8     0.6    2.97   44.81    0.00    0.00    0.00    2.97    0.00    0.00    0.00    2.64     3.3    35.2    2.44    2.01    1.07    1.03    1.05    0.76    0.52    0.04    0.04    2.40    0.05    0.03    0.02    0.02    0.03    0.01    0.01    2.68    3.34   37.59    2.49    2.03    1.08    1.04    1.08    0.77    0.53
 1989 106     7    67     1   101.4    97.2     4.3     0.3    3.42   47.09    0.00    0.00    0.00    3.42    0.00    0.00    0.00    2.67     3.3    36.1    2.54    2.01    1.08    1.03    1.06    0.77    0.52    0.05    0.04    1.57    0.04    0.03    0.02    0.02    0.03    0.01    0.01    2.71    3.35   37.68    2.59    2.04    1.10    1.05    1.09    0.78    0.53
 1989 107     8    67     1   102.0    98.8     3.2     0.2    3.88   48.75    0.00    0.00    0.00    3.88    0.00    0.00    0.00    2.70     3.3    36.7    2.64    2.02    1.09    1.04    1.07    0.77    0.53    0.05    0.04    1.01    0.04    0.03    0.02    0.02    0.03    0.01    0.01    2.75    3.37   37.71    2.68    2.05    1.11    1.06    1.10    0.78    0.54
 1989 108     9    67     1   102.6   100.0     2.5     0.1    4.34   49.97    0.00    0.00    0.00    4.34    0.00    0.00    0.00    2.73     3.3    37.1    2.73    2.03    1.10    1.04    1.08    0.77    0.53    0.05    0.04    0.65    0.04    0.03    0.02    0.02    0.03    0.01    0.01    2.78    3.38   37.71    2.77    2.05    1.12    1.06    1.12    0.78    0.54
 1989 109    10    67     1   103.1   101.0     2.1     0.1    4.80   50.92    0.00    0.00    0.00    4.80    0.00    0.00    0.00    2.77     3.3    37.3    2.81    2.04    1.11    1.05    1.09    0.78    0.54    0.05    0.04    0.41    0.03    0.03    0.02    0.02    0.03    0.01    0.01    2.82    3.39   37.70    2.85    2.06    1.13    1.07    1.13    0.79    0.55
 1989 110    11    67     1   103.6   101.8     1.8     0.0    5.27   51.70    0.00    0.00    0.00    5.27    0.00    0.00    0.00    2.81     3.4    37.4    2.89    2.04    1.13    1.06    1.11    0.78    0.54    0.05    0.04    0.26    0.03    0.03    0.02    0.02    0.03    0.01    0.01    2.85    3.40   37.68    2.92    2.07    1.14    1.08    1.14    0.79    0.55
 1989 111    12    67     1   104.1   102.5     1.6     0.0    5.75   52.38    0.00    0.00    0.00    5.75    0.00    0.00    0.00    2.84     3.4    37.5    2.96    2.06    1.14    1.07    1.12    0.78    0.55    0.05    0.04    0.16    0.03    0.03    0.02    0.02    0.03    0.01    0.01    2.89    3.41   37.65    2.99    2.08    1.16    1.08    1.15    0.79    0.56
 1989 112    13    67     1   104.6   103.1     1.5     0.0    6.24   52.99    0.00    0.00    0.00    6.24    0.00    0.00    0.00    2.88     3.4    37.5    3.03    2.07    1.15    1.07    1.13    0.79    0.55    0.05    0.04    0.10    0.03    0.03    0.02    0.02    0.03    0.01    0.01    2.93    3.42   37.63    3.06    2.09    1.17    1.09    1.17    0.80    0.56
 1989 113    14    67     1   105.1   103.6     1.4     0.0    6.73   53.56    0.00    0.00    0.00    6.73    0.00    0.00    0.00    2.93     3.4    37.5    3.10    2.08    1.16    1.08    1.14    0.79    0.56    0.05    0.04    0.07    0.03    0.03    0.02    0.02    0.03    0.01    0.01    2.97    3.43   37.61    3.12    2.10    1.18    1.10    1.18    0.80    0.57
 1989 114    15    67     1   105.6   104.1     1.4     0.0    7.22   54.08    0.00    0.00    0.00    7.22    0.00    0.00    0.00    0.62     2.9    35.5    7.73    2.15    1.17    1.09    1.16    0.79    0.56    0.05    0.04    0.05    0.03    0.03    0.02    0.02    0.03    0.01    0.01    0.66    2.92   35.58    7.75    2.17    1.19    1.11    1.19    0.81    0.57
 1989 115    16    67     1   106.0   104.6     1.5     0.0    7.68   54.49    0.00    0.00    0.00    7.68    0.00    0.00    0.00    0.59     2.7    32.3   10.58    3.97    1.39    1.10    1.17    0.80    0.57    0.06    0.05    0.06    0.03    0.03    0.02    0.02    0.03    0.01    0.01    0.65    2.74   32.39   10.61    4.00    1.41    1.12    1.21    0.81    0.58
 1989 116    17    67     1   106.5   105.0     1.5     0.0    8.12   54.91    0.00    0.00    0.00    8.12    0.00    0.00    0.00    0.62     2.6    30.5   12.11    4.74    1.89    1.11    1.18    0.80    0.57    0.06    0.06    0.06    0.03    0.03    0.02    0.02    0.03    0.01    0.01    0.67    2.65   30.53   12.14    4.77    1.90    1.12    1.22    0.81    0.58
 1989 117    18    67     1   106.8   105.4     1.5     0.0    8.51   55.29    0.00    0.00    0.00    8.51    0.00    0.00    0.00    0.64     2.5    29.2   13.06    5.32    2.22    1.13    1.19    0.80    0.57    0.05    0.06    0.06    0.04    0.03    0.02    0.02    0.03    0.01    0.01    0.69    2.60   29.29   13.09    5.35    2.24    1.14    1.23    0.82    0.59
 1989 118    19    67     1   107.2   105.7     1.5     0.0    8.87   55.65    0.00    0.00    0.00    8.87    0.00    0.00    0.00    0.15     1.7    23.2   18.41    9.27    2.74    1.21    1.20    0.81    0.58    0.05    0.07    0.06    0.04    0.03    0.02    0.02    0.03    0.01    0.01    0.20    1.74   23.26   18.44    9.30    2.76    1.22    1.24    0.82    0.59
 1989 119    20    67     1   107.3   105.8     1.5     0.0    9.20   55.96    0.21    0.00    0.00    9.20    0.02    0.00    0.00    0.14     1.6    21.0   17.81   10.34    3.92    2.22    1.33    0.81    0.58    0.06    0.07    0.06    0.04    0.03    0.02    0.02    0.03    0.01    0.01    0.20    1.63   21.03   17.84   10.38    3.95    2.24    1.36    0.82    0.59
 1989 120    21    67     1   107.4   105.9     1.5     0.0    9.54   56.28    0.34    0.00    0.00    9.54    0.05    0.00    0.00    0.16     1.5    19.6   17.26   10.85    4.68    2.62    1.59    0.81    0.58    0.05    0.07    0.05    0.04    0.04    0.02    0.02    0.03    0.01    0.01    0.21    1.58   19.70   17.30   10.89    4.71    2.64    1.63    0.82    0.60
 1989 121    22    67     1   107.6   106.2     1.5     0.0    9.90   56.62    0.44    0.00    0.00    9.90    0.09    0.00    0.00    0.06     1.1    16.8   18.50   13.13    5.42    2.74    1.62    0.82    0.59    0.04    0.08    0.05    0.04    0.04    0.03    0.02    0.03    0.01    0.01    0.10    1.16   16.88   18.54   13.17    5.45    2.76    1.65    0.83    0.60
 1989 122    23    67     1   107.8   106.3     1.5     0.0   10.29   56.96    0.63    0.00    0.00   10.29    0.14    0.00    0.00    0.06     1.0    15.2   17.13   13.27    6.49    3.58    2.14    0.88    0.59    0.05    0.08    0.05    0.04    0.05    0.03    0.03    0.03    0.01    0.01    0.11    1.09   15.24   17.17   13.32    6.52    3.61    2.18    0.89    0.60
 1989 123    24    67     1   108.0   106.4     1.6     0.0   10.72   57.34    0.81    0.00    0.00   10.72    0.19    0.00    0.00    0.08     1.0    14.2   16.20   13.17    7.09    4.16    2.30    1.15    0.60    0.04    0.09    0.05    0.04    0.05    0.03    0.03    0.04    0.01    0.01    0.12    1.06   14.26   16.24   13.22    7.12    4.19    2.34    1.17    0.61
 1989 124    25    67     1   108.2   106.7     1.5     0.0   11.18   57.80    0.94    0.00    0.00   11.18    0.26    0.00    0.00    0.10     1.0    13.5   15.55   13.04    7.47    4.57    2.44    1.35    0.60    0.03    0.08    0.05    0.04    0.05    0.03    0.03    0.04    0.01    0.01    0.13    1.05   13.60   15.59   13.09    7.51    4.60    2.48    1.36    0.62
 1989 125    26    67     1   108.5   107.0     1.5     0.0   11.67   58.28    1.04    0.00    0.00   11.67    0.33    0.00    0.00    0.03     0.6    10.1   14.77   15.03    9.60    5.88    2.57    1.37    0.62    0.02    0.08    0.05    0.04    0.04    0.03    0.03    0.04    0.01    0.01    0.06    0.66   10.14   14.80   15.07    9.63    5.91    2.61    1.39    0.63
 1989 126    27    67     1   108.6   107.0     1.6     0.0   12.18   58.70    1.36    0.00    0.00   12.18    0.42    0.00    0.00    0.03     0.5     9.1   13.27   14.05    9.75    6.61    3.04    1.77    1.17    0.04    0.09    0.05    0.04    0.05    0.04    0.04    0.04    0.01    0.01    0.07    0.63    9.12   13.31   14.10    9.79    6.65    3.08    1.78    1.19
 1989 127    28    67     1   108.8   107.1     1.6     0.0   12.72   59.19    1.58    0.00    0.00   12.72    0.52    0.00    0.00    0.06     0.5     8.5   12.32   13.34    9.74    7.00    3.37    1.95    1.47    0.03    0.09    0.05    0.04    0.05    0.04    0.04    0.05    0.01    0.01    0.09    0.63    8.52   12.37   13.39    9.78    7.04    3.42    1.96    1.48
 1989 128    29    67     1   109.0   107.4     1.6     0.0   13.26   59.72    1.73    0.00    0.00   13.26    0.63    0.00    0.00    0.08     0.5     8.1   11.69   12.83    9.69    7.24    3.61    2.08    1.57    0.02    0.08    0.05    0.04    0.05    0.04    0.04    0.06    0.01    0.01    0.10    0.63    8.11   11.73   12.88    9.73    7.27    3.67    2.10    1.58
 1989 129    30    67     1   109.3   107.7     1.6     0.0   13.82   60.27    1.84    0.00    0.00   13.82    0.77    0.00    0.00    0.03     0.4     6.3   11.01   13.82   10.89    7.83    3.73    2.12    1.57    0.02    0.07    0.05    0.04    0.04    0.04    0.04    0.06    0.01    0.01    0.05    0.44    6.37   11.05   13.86   10.93    7.87    3.79    2.13    1.58
 1989 130    31    67     1   109.4   107.8     1.7     0.0   14.40   60.77    2.15    0.00    0.00   14.40    0.90    0.00    0.00    0.03     0.4     5.7    9.73   12.50   10.44    8.20    4.24    2.45    1.86    0.04    0.08    0.06    0.04    0.05    0.04    0.04    0.06    0.02    0.01    0.07    0.44    5.71    9.78   12.54   10.48    8.24    4.30    2.46    1.87
 1989 131    32    67     1   109.6   107.9     1.7     0.0   14.96   61.29    2.34    0.00    0.00   14.96    1.08    0.00    0.00    0.03     0.3     4.5    8.52   11.97   10.68    9.23    4.87    2.58    1.91    0.03    0.08    0.06    0.05    0.05    0.04    0.04    0.06    0.02    0.01    0.07    0.35    4.55    8.57   12.02   10.73    9.27    4.93    2.60    1.92
 1989 132    33    67     1   109.7   107.9     1.8     0.0   15.48   61.73    2.63    0.00    0.00   15.48    1.21    0.00    0.00    0.05     0.3     4.1    7.57   10.75    9.99    9.11    5.19    2.95    2.24    0.04    0.09    0.07    0.05    0.05    0.05    0.04    0.07    0.02    0.02    0.09    0.35    4.15    7.62   10.80   10.04    9.15    5.26    2.96    2.25
 1989 133    34    67     1   109.9   108.0     1.8     0.0   15.97   62.14    2.82    0.00    0.00   15.97    1.33    0.00    0.00    0.07     0.3     3.8    6.93    9.90    9.49    8.95    5.40    3.20    2.48    0.03    0.09    0.07    0.05    0.05    0.05    0.05    0.07    0.02    0.02    0.10    0.36    3.87    6.99    9.95    9.54    9.00    5.47    3.22    2.50
 1989 134    35    67     1   110.0   108.2     1.8     0.0   16.41   62.57    2.93    0.00    0.00   16.41    1.49    0.00    0.00    0.08     0.3     3.6    6.51    9.33    9.14    8.81    5.52    3.37    2.65    0.02    0.09    0.07    0.05    0.05    0.05    0.05    0.08    0.02    0.02    0.11    0.37    3.67    6.56    9.38    9.19    8.86    5.60    3.39    2.67
 1989 135    36    67     1   110.2   108.4     1.8     0.0   16.80   62.97    3.00    0.00    0.00   16.80    1.64    0.00    0.00    0.09     0.3     3.5    6.22    8.93    8.90    8.70    5.60    3.49    2.78    0.02    0.09    0.07    0.05    0.05    0.05    0.04    0.08    0.02    0.02    0.11    0.38    3.54    6.27    8.98    8.95    8.74    5.68    3.51    2.79
 1989 136    37    67     1   110.4   108.5     1.8     0.0   17.19   63.34    3.05    0.00    0.00   17.19    1.80    0.00    0.00    0.10     0.3     3.4    6.03    8.67    8.73    8.61    5.65    3.58    2.86    0.02    0.08    0.06    0.05    0.05    0.05    0.04    0.08    0.02    0.02    0.12    0.39    3.45    6.08    8.72    8.78    8.65    5.73    3.60    2.87
 1989 137    38    67     1   110.6   108.8     1.8     0.0   17.57   63.76    3.09    0.00    0.00   17.57    1.94    0.00    0.00    0.11     0.3     3.3    5.90    8.48    8.62    8.55    5.69    3.64    2.91    0.02    0.07    0.06    0.05    0.05    0.04    0.04    0.08    0.02    0.02    0.12    0.41    3.39    5.96    8.53    8.67    8.59    5.77    3.66    2.93
 1989 138    39    67     1   110.8   109.0     1.8     0.0   17.97   64.17    3.11    0.00    0.00   17.97    2.10    0.00    0.00    0.11     0.4     3.3    5.81    8.35    8.54    8.50    5.71    3.68    2.95    0.02    0.06    0.06    0.05    0.05    0.04    0.04    0.08    0.02    0.02    0.13    0.42    3.34    5.86    8.40    8.59    8.55    5.79    3.70    2.97
 1989 139    40    89     2   127.4   115.4    12.0     5.6   18.38   64.61    3.13    0.00    0.00   18.38    2.32    0.00    0.00    0.02     0.2     5.2    4.07    6.97    8.15    9.16    6.93    4.34    3.22    0.02    0.05    5.45    0.05    0.05    0.04    0.04    0.08    0.02    0.02    0.04    0.23   10.61    4.12    7.01    8.19    9.20    7.01    4.36    3.24
 1989 140    41    89     2   128.7   115.2    13.5     3.1   18.82   65.89    3.40    0.00    0.00   18.82    2.55    1.03    0.00    0.02     0.2     5.1    3.92    6.13    7.24    8.42    6.77    4.59    3.63    0.03    0.06    6.20    0.05    0.05    0.04    0.04    0.08    0.02    0.02    0.05    0.23   11.32    3.98    6.18    7.28    8.47    6.86    4.61    3.65
 1989 141    42    89     2   129.2   116.1    13.1     1.7   19.29   68.09    3.59    0.00    0.00   19.29    2.78    2.04    0.00    0.04     0.2     5.7    3.83    5.62    6.67    7.91    6.62    4.71    3.87    0.03    0.07    5.82    0.25    0.05    0.05    0.05    0.09    0.02    0.02    0.06    0.24   11.55    4.08    5.67    6.72    7.96    6.71    4.73    3.89
 1989 142    43    89     2   129.3   117.9    11.4     0.9   19.81   71.01    3.73    0.00    0.00   19.81    3.11    2.79    0.00    0.05     0.2     6.7    3.84    5.29    6.30    7.56    6.51    4.78    4.03    0.02    0.07    4.79    0.34    0.09    0.05    0.05    0.09    0.02    0.02    0.07    0.26   11.50    4.18    5.38    6.34    7.61    6.60    4.80    4.05
 1989 143    44    89     2   129.2   120.1     9.2     0.4   20.35   74.14    3.84    0.00    0.00   20.35    3.47    3.32    0.00    0.06     0.2     7.8    3.92    5.09    6.05    7.32    6.42    4.81    4.12    0.02    0.07    3.55    0.34    0.10    0.05    0.05    0.09    0.02    0.02    0.08    0.28   11.34    4.26    5.19    6.10    7.37    6.51    4.83    4.14
 1989 144    45    89     2   129.2   122.1     7.1     0.2   20.90   76.89    3.92    0.00    0.00   20.90    3.87    3.67    0.00    0.07     0.2     8.7    4.00    4.97    5.90    7.17    6.37    4.83    4.18    0.01    0.06    2.47    0.30    0.10    0.05    0.04    0.09    0.02    0.02    0.08    0.30   11.17    4.29    5.07    5.95    7.21    6.45    4.85    4.20
 1989 145    46    89     2   129.3   124.0     5.4     0.1   21.46   79.19    3.97    0.00    0.00   21.46    4.32    3.67    0.00    0.03     0.2     9.0    4.58    5.01    5.90    7.16    6.36    4.85    4.23    0.01    0.05    1.62    0.23    0.09    0.05    0.04    0.09    0.02    0.02    0.04    0.29   10.63    4.81    5.10    5.95    7.20    6.44    4.87    4.25
 1989 146    47    89     2   128.6   123.9     4.6     0.0   22.03   80.45    4.07    0.00    0.00   22.03    4.74    4.50    0.00    0.03     0.2     8.5    4.87    4.89    5.58    6.85    6.30    4.93    4.36    0.03    0.06    1.26    0.20    0.08    0.05    0.04    0.08    0.02    0.02    0.07    0.29    9.78    5.07    4.97    5.63    6.89    6.38    4.96    4.38
 1989 147    48    89     2   128.1   124.2     4.0     0.0   22.58   81.67    4.14    0.00    0.00   22.58    5.18    5.01    0.00    0.05     0.2     8.3    5.00    4.82    5.40    6.66    6.26    4.97    4.43    0.03    0.07    0.92    0.16    0.07    0.05    0.04    0.08    0.02    0.02    0.08    0.30    9.24    5.16    4.89    5.45    6.70    6.34    5.00    4.45
 1989 148    49    89     2   127.8   124.4     3.4     0.0   23.13   82.77    4.19    0.00    0.00   23.13    5.77    5.31    0.00    0.07     0.3     8.2    5.05    4.76    5.29    6.53    6.23    5.01    4.48    0.02    0.07    0.64    0.12    0.06    0.05    0.04    0.08    0.02    0.02    0.09    0.32    8.82    5.17    4.82    5.33    6.58    6.31    5.03    4.50
 1989 149    50    89     2   127.5   124.6     2.9     0.0   23.68   83.73    4.22    0.00    0.00   23.68    6.42    5.45    0.00    0.08     0.3     8.1    5.04    4.70    5.22    6.47    6.24    5.03    4.51    0.02    0.06    0.43    0.10    0.06    0.04    0.04    0.08    0.02    0.02    0.09    0.34    8.51    5.14    4.76    5.26    6.51    6.32    5.05    4.53
 1989 150    51    89     2   127.2   124.6     2.6     0.0   24.22   84.58    4.24    0.00    0.00   24.22    7.16    5.50    0.00    0.09     0.3     8.0    4.98    4.63    5.17    6.43    6.25    5.04    4.52    0.01    0.05    0.30    0.08    0.05    0.04    0.04    0.08    0.02    0.02    0.10    0.36    8.27    5.06    4.69    5.21    6.47    6.32    5.06    4.54
 1989 151    52    89     2   127.0   124.6     2.4     0.0   24.76   85.31    4.25    0.00    0.00   24.76    7.84    5.52    0.00    0.10     0.3     7.9    4.93    4.57    5.13    6.40    6.26    5.05    4.53    0.01    0.04    0.22    0.07    0.05    0.04    0.04    0.08    0.02    0.02    0.11    0.38    8.07    5.00    4.62    5.17    6.44    6.33    5.07    4.55
 1989 152    53    89     2   126.9   124.7     2.2     0.0   25.28   86.03    4.27    0.00    0.00   25.28    8.49    5.52    0.00    0.11     0.4     7.8    4.87    4.52    5.10    6.38    6.27    5.05    4.53    0.01    0.04    0.12    0.06    0.04    0.04    0.04    0.08    0.02    0.02    0.12    0.40    7.92    4.93    4.56    5.14    6.42    6.34    5.07    4.55
 1989 153    54    89     2   126.5   124.4     2.1     0.0   25.79   86.66    4.28    0.00    0.00   25.79    9.35    5.52    0.00    0.11     0.4     7.6    4.79    4.45    5.06    6.34    6.27    5.05    4.53    0.01    0.04    0.08    0.04    0.03    0.03    0.04    0.08    0.02    0.02    0.13    0.42    7.70    4.83    4.48    5.09    6.38    6.35    5.07    4.55
 1989 154    55    89     2   126.1   124.1     2.0     0.0   26.29   87.22    4.29    0.00    0.00   26.29   10.26    5.52    0.00    0.12     0.4     7.4    4.70    4.36    5.02    6.30    6.28    5.06    4.54    0.01    0.04    0.05    0.04    0.03    0.02    0.04    0.08    0.02    0.02    0.14    0.44    7.48    4.74    4.39    5.04    6.34    6.35    5.08    4.56
 1989 155    56    89     2   125.6   123.5     2.0     0.0   26.79   87.76    4.30    0.00    0.00   26.79   11.31    5.52    0.00    0.13     0.4     7.2    4.59    4.26    4.96    6.25    6.28    5.06    4.54    0.01    0.04    0.04    0.03    0.03    0.02    0.03    0.08    0.02    0.02    0.15    0.46    7.22    4.62    4.28    4.98    6.28    6.35    5.08    4.56
 1989 156    57    89     2   124.9   123.0     2.0     0.0   27.31   88.31    4.31    0.00    0.00   27.31   12.42    5.52    0.00    0.03     0.3     5.5    5.80    4.87    5.02    6.24    6.28    5.06    4.54    0.01    0.04    0.04    0.03    0.03    0.02    0.02    0.07    0.02    0.02    0.04    0.31    5.58    5.83    4.90    5.04    6.26    6.35    5.08    4.57
 1989 157    58    89     2   123.0   121.0     2.0     0.0   27.85   88.79    4.32    0.00    0.00   27.85   13.67    6.74    0.00    0.03     0.3     4.8    5.29    4.61    4.66    5.79    6.11    5.15    4.70    0.03    0.05    0.05    0.04    0.03    0.02    0.02    0.07    0.02    0.02    0.06    0.31    4.89    5.33    4.65    4.68    5.81    6.19    5.17    4.72
 1989 158    59    89     2   121.5   119.5     2.1     0.0   28.40   89.31    4.33    0.00    0.00   28.40   14.96    7.48    0.00    0.05     0.3     4.4    4.89    4.39    4.43    5.52    6.00    5.19    4.78    0.03    0.06    0.05    0.04    0.04    0.03    0.02    0.07    0.02    0.02    0.08    0.32    4.41    4.93    4.43    4.46    5.54    6.08    5.21    4.80
 1989 159    60    89     2   120.3   118.2     2.1     0.0   28.96   89.86    4.33    0.00    0.00   28.96   16.33    7.92    0.00    0.07     0.3     4.0    4.56    4.18    4.26    5.34    5.92    5.21    4.82    0.02    0.06    0.05    0.05    0.04    0.03    0.02    0.07    0.02    0.02    0.09    0.34    4.03    4.60    4.22    4.29    5.35    5.99    5.23    4.84
 1989 160    61    89     2   119.1   117.0     2.1     0.0   29.51   90.43    4.34    0.00    0.00   29.51   17.81    8.14    0.00    0.08     0.3     3.7    4.28    3.98    4.14    5.20    5.86    5.21    4.85    0.02    0.06    0.05    0.05    0.04    0.02    0.02    0.07    0.02    0.02    0.09    0.36    3.72    4.32    4.02    4.16    5.21    5.94    5.23    4.87
 1989 161    62    89     2   118.0   116.1     2.0     0.0   30.07   91.09    4.36    0.00    0.00   30.07   19.40    8.19    0.00    0.09     0.3     3.4    4.03    3.79    4.04    5.09    5.85    5.22    4.86    0.01    0.05    0.05    0.05    0.04    0.02    0.02    0.05    0.02    0.02    0.10    0.38    3.43    4.07    3.83    4.06    5.11    5.90    5.24    4.88
 1989 162    63    89     2   116.9   115.0     1.9     0.0   30.63   91.71    4.37    0.00    0.00   30.63   21.08    8.19    0.00    0.10     0.4     3.1    3.79    3.61    3.93    4.97    5.82    5.22    4.86    0.01    0.04    0.05    0.04    0.03    0.02    0.02    0.04    0.02    0.02    0.11    0.40    3.16    3.84    3.65    3.95    4.99    5.86    5.24    4.88
 1989 163    64    89     2   115.6   113.8     1.8     0.0   31.21   92.34    4.37    0.00    0.00   31.21   22.88    8.19    0.00    0.03     0.3     2.6    3.87    3.59    3.85    4.83    5.77    5.22    4.86    0.01    0.04    0.04    0.03    0.03    0.02    0.02    0.04    0.02    0.02    0.04    0.31    2.62    3.90    3.62    3.87    4.85    5.81    5.24    4.88
 1989 164    65    89     2   113.4   111.5     1.9     0.0   31.79   92.87    4.38    0.00    0.00   31.79   24.77    9.16    0.00    0.03     0.3     2.2    3.30    3.23    3.53    4.50    5.57    5.21    4.93    0.03    0.05    0.05    0.04    0.03    0.02    0.02    0.04    0.02    0.02    0.06    0.31    2.24    3.34    3.27    3.54    4.52    5.60    5.23    4.95
 1989 165    66    89     2   111.5   109.6     1.9     0.0   32.39   93.47    4.39    0.00    0.00   32.39   26.68    9.70    0.00    0.05     0.3     1.9    2.90    2.94    3.30    4.24    5.41    5.19    4.97    0.03    0.06    0.05    0.04    0.03    0.02    0.02    0.03    0.02    0.02    0.08    0.32    1.94    2.94    2.98    3.32    4.26    5.44    5.21    4.99
 1989 166    67   111     3   127.6   114.2    13.3     4.4   33.01   94.12    4.39    0.00    0.00   33.01   28.70    9.84    0.00    0.07     0.3     4.9    2.57    2.70    3.13    4.06    5.32    5.17    4.98    0.02    0.06    6.06    0.04    0.03    0.02    0.02    0.03    0.02    0.02    0.09    0.34   10.92    2.62    2.73    3.15    4.08    5.35    5.19    5.00
 1989 167    68   111     3   128.5   118.0    10.5     1.9   33.64   99.33    4.40    0.00    0.00   33.64   30.80    9.84    0.00    0.09     0.3     6.9    2.48    2.62    3.07    3.97    5.28    5.17    4.98    0.01    0.04    4.60    0.04    0.03    0.02    0.02    0.03    0.02    0.02    0.10    0.36   11.50    2.52    2.65    3.08    3.99    5.31    5.19    5.00
 1989 168    69   111     3   128.0   123.0     5.1     0.8   34.29  105.90    4.41    0.00    0.00   34.29   33.01    9.84    0.00    0.10     0.4     9.6    2.38    2.51    3.00    3.89    5.24    5.16    4.99    0.01    0.03    1.77    0.05    0.02    0.02    0.02    0.03    0.02    0.02    0.11    0.39   11.34    2.42    2.54    3.01    3.90    5.27    5.18    5.01
 1989 169    70   111     3   126.9   124.0     2.9     0.4   34.96  108.96    4.41    0.00    0.00   34.96   35.30    9.84    0.00    0.11     0.4    10.2    2.28    2.39    2.92    3.79    5.20    5.15    4.99    0.01    0.03    0.64    0.04    0.02    0.02    0.02    0.03    0.02    0.02    0.12    0.41   10.88    2.31    2.42    2.93    3.81    5.23    5.17    5.01
 1989 170    71   111     3   125.4   123.3     2.1     0.1   35.64  110.50    4.42    0.00    0.00   35.64   37.64    9.84    0.00    0.12     0.4    10.0    2.16    2.26    2.83    3.69    5.14    5.13    4.99    0.01    0.03    0.25    0.03    0.02    0.02    0.02    0.03    0.02    0.02    0.13    0.44   10.29    2.19    2.29    2.85    3.71    5.17    5.15    5.01
 1989 171    72   111     3   124.1   122.3     1.8     0.1   36.31  111.55    4.43    0.00    0.00   36.31   39.69    9.84    0.00    0.13     0.4     9.6    2.06    2.15    2.75    3.59    5.09    5.12    5.00    0.01    0.03    0.12    0.03    0.02    0.02    0.02    0.03    0.01    0.02    0.14    0.47    9.75    2.09    2.17    2.77    3.61    5.12    5.13    5.02
 1989 172    73   111     3   122.3   120.6     1.7     0.0   36.98  112.38    4.43    0.00    0.00   36.98   42.23    9.84    0.00    0.14     0.5     9.0    1.93    2.01    2.65    3.47    5.02    5.10    5.00    0.01    0.03    0.06    0.02    0.02    0.02    0.02    0.03    0.01    0.02    0.15    0.50    9.06    1.95    2.03    2.67    3.49    5.04    5.11    5.01
 1989 173    74   111     3   120.2   118.6     1.6     0.0   37.65  113.13    4.44    0.00    0.00   37.65   44.99    9.84    0.00    0.15     0.5     8.3    1.79    1.86    2.54    3.33    4.93    5.07    4.99    0.01    0.02    0.04    0.02    0.02    0.02    0.02    0.03    0.01    0.02    0.16    0.53    8.31    1.81    1.88    2.55    3.35    4.96    5.08    5.01
 1989 174    75   111     3   117.9   116.3     1.6     0.0   38.30  113.81    4.44    0.00    0.00   38.30   47.96    9.84    0.00    0.16     0.5     7.5    1.64    1.70    2.41    3.17    4.82    5.02    4.98    0.01    0.02    0.03    0.02    0.02    0.02    0.02    0.03    0.01    0.02    0.17    0.55    7.54    1.66    1.72    2.42    3.19    4.85    5.03    5.00
 1989 175    76   111     3   115.4   113.8     1.6     0.0   38.93  114.45    4.45    0.00    0.00   38.93   51.06    9.84    0.00    0.17     0.5     6.8    1.50    1.55    2.28    3.01    4.70    4.97    4.96    0.01    0.02    0.02    0.02    0.02    0.01    0.02    0.03    0.01    0.02    0.18    0.49    6.78    1.52    1.57    2.29    3.02    4.73    4.98    4.98
 1989 176    77   111     3   112.8   111.2     1.6     0.0   39.55  115.07    4.45    0.00    0.00   39.55   54.29    9.84    0.00    0.18     0.5     6.0    1.35    1.39    2.14    2.83    4.56    4.91    4.93    0.01    0.02    0.02    0.02    0.02    0.01    0.01    0.03    0.01    0.02    0.19    0.51    5.99    1.36    1.41    2.15    2.85    4.59    4.92    4.95
 1989 177    78   111     3   110.0   108.4     1.6     0.0   40.15  115.67    4.45    0.00    0.00   40.15   57.63    9.84    0.00    0.18     0.5     5.2    1.20    1.24    2.00    2.65    4.41    4.83    4.89    0.01    0.02    0.02    0.02    0.02    0.01    0.01    0.03    0.01    0.01    0.20    0.53    5.20    1.21    1.25    2.01    2.66    4.44    4.84    4.91
 1989 178    79   111     3   107.3   105.7     1.6     0.0   40.71  116.24    4.46    0.00    0.00   40.71   60.93    9.84    0.00    0.03     0.3     4.0    2.06    1.09    1.85    2.47    4.25    4.75    4.84    0.01    0.02    0.02    0.02    0.02    0.01    0.01    0.03    0.01    0.01    0.04    0.30    3.99    2.08    1.11    1.87    2.48    4.28    4.76    4.86
 1989 179    80   111     3   104.5   102.9     1.7     0.0   41.32  116.79    4.46    0.00    0.00   41.32   64.31    9.84    0.00    0.03     0.3     3.1    1.82    1.27    1.71    2.29    4.08    4.66    4.78    0.03    0.04    0.03    0.02    0.02    0.01    0.01    0.03    0.01    0.01    0.06    0.31    3.09    1.84    1.29    1.73    2.30    4.11    4.67    4.79
 1989 180    81   111     3   101.7   100.0     1.7     0.0   41.96  117.40    4.46    0.00    0.00   41.96   67.79    9.84    0.00    0.05     0.3     2.3    1.62    1.06    1.59    2.13    3.93    4.57    4.71    0.04    0.05    0.04    0.02    0.02    0.01    0.01    0.03    0.01    0.01    0.08    0.32    2.35    1.64    1.09    1.61    2.14    3.96    4.58    4.72
 1989 181    82   111     3    98.8    97.1     1.7     0.0   42.62  118.03    4.46    0.00    0.00   42.62   71.33    9.84    0.00    0.07     0.3     1.6    1.27    0.95    1.48    1.96    3.76    4.47    4.64    0.04    0.06    0.05    0.03    0.02    0.01    0.01    0.03    0.01    0.01    0.11    0.33    1.68    1.30    0.97    1.49    1.98    3.79    4.48    4.65
 1989 182    83   111     3    95.8    94.1     1.7     0.0   43.28  118.71    4.47    0.00    0.00   43.28   74.99    9.84    0.00    0.04     0.2     0.8    1.06    0.99    1.41    1.79    3.57    4.35    4.54    0.02    0.06    0.05    0.03    0.02    0.01    0.01    0.03    0.01    0.01    0.07    0.25    0.89    1.08    1.01    1.42    1.80    3.60    4.36    4.55
 1989 183    84   111     3    92.8    91.0     1.8     0.0   43.95  119.33    4.47    0.00    0.00   43.95   78.70    9.84    0.00    0.05     0.2     0.5    0.75    0.72    1.09    1.76    3.32    4.19    4.41    0.04    0.07    0.05    0.04    0.04    0.01    0.01    0.02    0.01    0.01    0.10    0.27    0.58    0.79    0.76    1.11    1.77    3.34    4.20    4.42
 1989 184    85   111     3    89.6    87.8     1.8     0.0   44.64  120.02    4.48    0.00    0.00   44.64   82.56    9.84    0.00    0.09     0.2     0.3    0.49    0.48    0.81    1.39    3.11    4.01    4.27    0.03    0.07    0.05    0.04    0.04    0.01    0.01    0.02    0.01    0.01    0.12    0.29    0.34    0.53    0.52    0.82    1.40    3.14    4.02    4.28
 1989 185    86   111     3    86.5    84.8     1.7     0.0   45.34  120.77    4.48    0.00    0.00   45.34   86.33    9.84    0.00    0.06     0.3     0.3    0.51    0.50    0.56    0.96    2.72    3.77    4.06    0.02    0.04    0.05    0.04    0.04    0.02    0.01    0.03    0.01    0.01    0.07    0.31    0.37    0.55    0.54    0.57    0.97    2.75    3.78    4.07
 1989 186    87   111     3    83.8    82.1     1.7     0.0   46.04  121.45    4.48    0.00    0.00   46.04   89.75    9.84    0.00    0.06     0.3     0.3    0.50    0.51    0.38    0.66    2.39    3.52    3.85    0.04    0.06    0.05    0.04    0.04    0.02    0.02    0.03    0.01    0.01    0.10    0.32    0.38    0.54    0.55    0.40    0.67    2.41    3.53    3.86
 1989 187    88   111     3    81.1    79.4     1.7     0.0   46.77  122.23    4.48    0.00    0.00   46.77   93.17    9.84    0.00    0.09     0.3     0.4    0.52    0.29    0.39    0.42    2.03    3.27    3.63    0.03    0.06    0.03    0.04    0.03    0.02    0.02    0.03    0.01    0.01    0.13    0.35    0.40    0.56    0.32    0.41    0.44    2.06    3.28    3.64
 1989 188    89   111     3    78.9    77.2     1.6     0.0   47.50  123.02    4.48    0.00    0.00   47.50   96.13    9.84    0.00    0.07     0.3     0.4    0.30    0.31    0.40    0.44    1.73    3.03    3.40    0.02    0.05    0.03    0.03    0.02    0.02    0.02    0.03    0.01    0.01    0.09    0.35    0.45    0.33    0.34    0.42    0.45    1.75    3.04    3.41
 1989 189    90   111     3    77.1    75.5     1.6     0.0   48.25  123.81    4.48    0.00    0.00   48.25   98.62    9.84    0.00    0.08     0.3     0.4    0.33    0.35    0.42    0.45    1.46    2.79    3.18    0.04    0.07    0.04    0.02    0.02    0.02    0.02    0.03    0.01    0.01    0.12    0.36    0.46    0.35    0.37    0.44    0.46    1.49    2.80    3.19
 1989 190    91   111     3    75.5    74.0     1.5     0.0   49.01  124.69    4.48    0.00    0.00   49.01  100.99    9.84    0.00    0.12     0.3     0.4    0.36    0.37    0.44    0.46    1.23    2.57    2.97    0.03    0.06    0.04    0.02    0.02    0.02    0.02    0.02    0.01    0.01    0.15    0.39    0.48    0.38    0.39    0.45    0.48    1.26    2.58    2.98
 1989 191    92   111     3    74.0    72.6     1.4     0.0   49.77  125.52    4.49    0.00    0.00   49.77  103.26    9.84    0.00    0.15     0.4     0.5    0.38    0.39    0.45    0.48    1.04    2.35    2.75    0.02    0.06    0.03    0.02    0.02    0.02    0.02    0.02    0.01    0.01    0.17    0.42    0.50    0.40    0.41    0.46    0.49    1.06    2.36    2.76
 1989 192    93   111     3    72.6    71.2     1.3     0.0   50.50  126.30    4.49    0.00    0.00   50.50  105.42    9.84    0.00    0.06     0.3     0.5    0.44    0.41    0.46    0.49    0.87    2.15    2.54    0.02    0.04    0.03    0.02    0.02    0.02    0.02    0.02    0.01    0.01    0.08    0.38    0.57    0.47    0.44    0.48    0.50    0.89    2.16    2.55
 1989 193    94   111     3    70.7    69.3     1.4     0.0   51.23  127.00    4.49    0.00    0.00   51.23  108.03    9.84    0.00    0.07     0.3     0.3    0.43    0.45    0.50    0.50    0.72    1.95    2.34    0.04    0.05    0.04    0.03    0.02    0.02    0.02    0.02    0.01    0.01    0.11    0.39    0.29    0.46    0.48    0.51    0.52    0.75    1.96    2.35
 1989 194    95   111     3    69.4    68.1     1.4     0.0   51.95  127.72    4.49    0.00    0.00   51.95  109.98    9.84    0.00    0.10     0.3     0.3    0.45    0.48    0.51    0.51    0.60    1.77    2.15    0.04    0.06    0.04    0.03    0.02    0.02    0.02    0.02    0.01    0.01    0.14    0.41    0.31    0.47    0.51    0.53    0.53    0.63    1.78    2.16
 1989 195    96   111     3    68.0    66.7     1.3     0.0   52.65  128.46    4.49    0.00    0.00   52.65  112.08    9.84    0.00    0.13     0.4     0.3    0.47    0.50    0.52    0.33    0.50    1.61    1.97    0.03    0.06    0.03    0.03    0.03    0.02    0.01    0.02    0.01    0.01    0.16    0.44    0.33    0.49    0.52    0.54    0.35    0.53    1.62    1.98
 1989 196    97   111     3    67.0    65.7     1.3     0.0   53.34  129.19    4.49    0.00    0.00   53.34  113.83    9.84    0.00    0.04     0.2     0.3    0.50    0.64    0.36    0.35    0.52    1.45    1.80    0.01    0.04    0.03    0.02    0.03    0.02    0.01    0.02    0.01    0.01    0.06    0.29    0.36    0.52    0.67    0.38    0.36    0.54    1.46    1.81
 1989 197    98   111     3    65.6    64.2     1.4     0.0   54.05  129.80    4.49    0.00    0.00   54.05  115.95    9.84    0.00    0.04     0.2     0.3    0.46    0.31    0.34    0.40    0.46    1.31    1.64    0.04    0.06    0.04    0.04    0.04    0.02    0.01    0.02    0.01    0.01    0.08    0.30    0.37    0.50    0.35    0.36    0.41    0.48    1.32    1.65
 1989 198    99   111     3    65.0    63.6     1.4     0.0   54.80  130.51    4.49    0.00    0.00   54.80  117.25    9.84    0.00    0.06     0.3     0.3    0.45    0.33    0.35    0.40    0.50    1.18    1.49    0.05    0.06    0.05    0.04    0.04    0.02    0.02    0.03    0.01    0.01    0.11    0.32    0.38    0.50    0.37    0.37    0.42    0.53    1.19    1.50
 1989 199   100   111     3    64.5    63.1     1.4     0.0   55.56  131.30    4.49    0.00    0.00   55.56  118.49    9.84    0.00    0.06     0.2     0.3    0.41    0.41    0.39    0.46    0.57    1.08    1.35    0.04    0.06    0.05    0.04    0.04    0.02    0.02    0.03    0.01    0.01    0.10    0.22    0.34    0.46    0.45    0.41    0.47    0.60    1.09    1.36
 1989 200   101   133     4    81.3    68.3    13.0     4.4   56.33  131.93    4.49    0.00    0.00   56.33  120.10    9.84    0.00    0.06     0.2     3.5    0.42    0.43    0.40    0.46    0.44    0.98    1.22    0.05    0.07    6.07    0.05    0.05    0.03    0.03    0.04    0.01    0.01    0.11    0.23    9.60    0.47    0.48    0.42    0.49    0.49    0.99    1.23
 1989 201   102   133     4    70.8    64.0     6.8     2.0   57.11  133.68    4.50    0.00    0.00   57.11  133.77    9.84    0.00    0.07     0.1     1.3    0.54    0.49    0.41    0.45    0.46    0.93    1.23    0.04    0.08    2.78    0.06    0.06    0.03    0.03    0.05    0.01    0.01    0.11    0.21    4.05    0.60    0.55    0.44    0.48    0.51    0.93    1.24
 1989 202   103   133     4    62.6    58.9     3.7     0.9   57.90  134.72    4.51    0.00    0.00   57.90  141.04   12.59    0.00    0.09     0.1     0.5    0.25    0.45    0.39    0.43    0.44    0.75    0.94    0.05    0.08    0.73    0.63    0.06    0.04    0.04    0.06    0.01    0.01    0.14    0.23    1.18    0.88    0.51    0.43    0.47    0.51    0.76    0.95
 1989 203   104   133     4    60.2    57.1     3.1     0.3   58.71  136.09    4.52    0.00    0.00   58.71  142.61   14.85    0.00    0.14     0.2     0.6    0.44    0.44    0.39    0.43    0.44    0.62    0.77    0.04    0.08    0.39    0.55    0.15    0.04    0.04    0.07    0.02    0.01    0.18    0.26    1.04    0.99    0.59    0.43    0.47    0.52    0.64    0.78
 1989 204   105   133     4    58.2    55.7     2.5     0.1   59.51  137.58    4.53    0.00    0.00   59.51  144.31   16.10    0.00    0.17     0.2     0.4    0.66    0.50    0.40    0.43    0.45    0.53    0.65    0.03    0.07    0.24    0.36    0.15    0.05    0.04    0.07    0.02    0.01    0.20    0.29    0.69    1.02    0.64    0.45    0.47    0.53    0.55    0.66
 1989 205   106   133     4    57.3    55.3     2.1     0.1   60.31  138.94    4.53    0.00    0.00   60.31  145.65   16.50    0.00    0.20     0.3     0.6    0.44    0.57    0.42    0.44    0.47    0.46    0.57    0.02    0.04    0.14    0.21    0.11    0.05    0.04    0.07    0.02    0.01    0.23    0.32    0.72    0.65    0.68    0.47    0.48    0.54    0.48    0.58
 1989 206   107   133     4    56.5    55.0     1.5     0.0   61.09  140.29    4.53    0.00    0.00   61.09  147.27   16.51    0.00    0.23     0.3     0.4    0.62    0.34    0.46    0.47    0.50    0.47    0.51    0.01    0.03    0.05    0.06    0.05    0.03    0.02    0.07    0.02    0.01    0.24    0.35    0.41    0.68    0.39    0.48    0.50    0.56    0.49    0.52
 1989 207   108   133     4    56.4    55.1     1.3     0.0   61.86  141.26    4.53    0.00    0.00   61.86  148.19   16.51    0.00    0.24     0.3     0.4    0.30    0.38    0.48    0.49    0.55    0.48    0.51    0.01    0.03    0.03    0.03    0.03    0.02    0.02    0.04    0.02    0.01    0.25    0.37    0.44    0.34    0.41    0.50    0.51    0.59    0.49    0.52
 1989 208   109   133     4    56.1    54.8     1.3     0.0   62.61  142.08    4.53    0.00    0.00   62.61  149.24   16.51    0.00    0.08     0.4     0.5    0.33    0.40    0.50    0.50    0.41    0.48    0.45    0.01    0.03    0.03    0.03    0.03    0.02    0.02    0.03    0.02    0.01    0.09    0.43    0.49    0.36    0.43    0.51    0.52    0.44    0.50    0.46
 1989 209   110   133     4    56.5    55.2     1.3     0.0   63.39  142.84    4.53    0.00    0.00   63.39  149.66   16.51    0.00    0.07     0.4     0.5    0.35    0.42    0.51    0.52    0.44    0.50    0.46    0.04    0.05    0.03    0.02    0.03    0.02    0.02    0.03    0.01    0.01    0.11    0.44    0.53    0.38    0.45    0.53    0.53    0.47    0.51    0.47
 1989 210   111   133     4    56.5    55.2     1.3     0.0   64.15  143.57    4.53    0.00    0.00   64.15  150.35   16.51    0.00    0.05     0.3     0.6    0.42    0.44    0.52    0.27    0.46    0.50    0.47    0.06    0.06    0.03    0.02    0.02    0.02    0.02    0.03    0.01    0.01    0.11    0.38    0.59    0.45    0.46    0.54    0.28    0.49    0.51    0.48
 1989 211   112   133     4    56.0    54.6     1.4     0.0   64.90  144.27    4.53    0.00    0.00   64.90  151.62   16.51    0.00    0.08     0.3     0.3    0.43    0.49    0.28    0.28    0.48    0.51    0.47    0.07    0.08    0.04    0.03    0.02    0.02    0.02    0.03    0.01    0.01    0.14    0.39    0.30    0.46    0.51    0.29    0.30    0.51    0.52    0.48
 1989 212   113   133     4    56.2    54.8     1.4     0.0   65.65  145.01    4.53    0.00    0.00   65.65  152.16   16.51    0.00    0.08     0.2     0.3    0.47    0.58    0.31    0.29    0.50    0.44    0.48    0.05    0.08    0.05    0.03    0.03    0.02    0.02    0.03    0.01    0.01    0.13    0.31    0.33    0.49    0.61    0.33    0.31    0.53    0.45    0.49
 1989 213   114   133     4    56.2    54.8     1.5     0.0   66.40  145.68    4.54    0.00    0.00   66.40  152.88   16.51    0.00    0.09     0.2     0.3    0.43    0.27    0.32    0.34    0.52    0.45    0.49    0.06    0.09    0.06    0.04    0.04    0.02    0.02    0.03    0.01    0.01    0.16    0.32    0.34    0.47    0.31    0.34    0.36    0.55    0.46    0.50
 1989 214   115   133     4    56.2    54.8     1.5     0.0   67.16  146.45    4.54    0.00    0.00   67.16  153.64   16.51    0.00    0.10     0.3     0.3    0.44    0.31    0.34    0.35    0.39    0.46    0.49    0.05    0.08    0.06    0.05    0.04    0.02    0.02    0.03    0.01    0.01    0.15    0.34    0.37    0.49    0.35    0.36    0.37    0.42    0.47    0.50
 1989 215   116   133     4    56.6    55.2     1.5     0.0   67.94  147.21    4.54    0.00    0.00   67.94  154.01   16.51    0.00    0.12     0.3     0.3    0.45    0.34    0.36    0.37    0.42    0.46    0.50    0.06    0.09    0.06    0.05    0.04    0.02    0.02    0.03    0.01    0.01    0.18    0.35    0.38    0.50    0.38    0.38    0.39    0.44    0.47    0.51
 1989 216   117   133     4    57.2    55.7     1.5     0.0   68.73  147.99    4.54    0.00    0.00   68.73  154.29   16.51    0.00    0.08     0.2     0.3    0.46    0.42    0.41    0.40    0.44    0.47    0.51    0.06    0.09    0.06    0.05    0.04    0.02    0.02    0.03    0.01    0.01    0.14    0.31    0.39    0.51    0.47    0.43    0.42    0.47    0.48    0.52
 1989 217   118   133     4    57.6    56.1     1.6     0.0   69.50  148.69    4.55    0.00    0.00   69.50  154.55   16.53    0.00    0.10     0.2     0.3    0.43    0.41    0.39    0.39    0.47    0.49    0.53    0.07    0.09    0.07    0.06    0.05    0.03    0.02    0.03    0.01    0.01    0.17    0.32    0.39    0.49    0.47    0.42    0.42    0.50    0.50    0.54
 1989 218   119   133     4    58.0    56.5     1.5     0.0   70.28  149.49    4.56    0.00    0.00   70.28  154.93   16.53    0.00    0.11     0.2     0.4    0.47    0.44    0.40    0.42    0.49    0.50    0.47    0.05    0.09    0.07    0.06    0.06    0.04    0.02    0.03    0.01    0.01    0.15    0.32    0.42    0.53    0.50    0.44    0.44    0.52    0.51    0.48
 1989 219   120   133     4    56.5    54.9     1.6     0.0   71.05  150.21    4.57    0.00    0.00   71.05  155.18   18.51    0.00    0.12     0.2     0.3    0.44    0.44    0.40    0.42    0.50    0.50    0.48    0.06    0.10    0.07    0.07    0.06    0.04    0.03    0.03    0.01    0.01    0.18    0.33    0.42    0.51    0.50    0.44    0.44    0.53    0.51    0.49
 1989 220   121   133     4    57.1    55.5     1.6     0.0   71.84  151.03    4.58    0.00    0.00   71.84  155.42   18.51    0.00    0.12     0.3     0.4    0.47    0.47    0.41    0.44    0.52    0.51    0.49    0.04    0.09    0.07    0.06    0.06    0.04    0.02    0.03    0.01    0.01    0.16    0.35    0.45    0.53    0.53    0.45    0.46    0.55    0.52    0.50
 1989 221   122   133     4    55.8    54.2     1.6     0.0   72.63  151.81    4.58    0.00    0.00   72.63  156.22   19.81    0.00    0.13     0.3     0.4    0.46    0.48    0.42    0.45    0.39    0.51    0.50    0.06    0.09    0.07    0.07    0.05    0.04    0.02    0.03    0.01    0.01    0.20    0.36    0.45    0.52    0.53    0.46    0.47    0.42    0.52    0.51
 1989 222   123   133     4    56.3    54.8     1.5     0.0   73.42  152.65    4.59    0.00    0.00   73.42  156.43   19.81    0.00    0.16     0.3     0.4    0.48    0.51    0.43    0.47    0.42    0.51    0.51    0.04    0.09    0.07    0.06    0.05    0.04    0.02    0.03    0.01    0.01    0.20    0.39    0.47    0.54    0.56    0.47    0.48    0.45    0.52    0.52
 1989 223   124   133     4    56.0    54.5     1.5     0.0   74.21  153.44    4.59    0.00    0.00   74.21  156.87   20.51    0.00    0.16     0.3     0.4    0.49    0.52    0.45    0.48    0.44    0.44    0.51    0.06    0.09    0.06    0.06    0.05    0.04    0.02    0.03    0.01    0.01    0.23    0.41    0.48    0.55    0.56    0.48    0.49    0.47    0.45    0.52
 1989 224   125   133     4    56.1    54.6     1.5     0.0   74.99  154.26    4.60    0.00    0.00   74.99  157.52   20.51    0.00    0.13     0.3     0.5    0.54    0.29    0.46    0.49    0.46    0.45    0.45    0.05    0.08    0.06    0.05    0.05    0.04    0.02    0.03    0.01    0.01    0.18    0.39    0.53    0.59    0.34    0.50    0.51    0.49    0.46    0.46
 1989 225   126   133     4    55.5    54.0     1.5     0.0   75.77  155.03    4.60    0.00    0.00   75.77  158.09   21.34    0.00    0.14     0.3     0.5    0.28    0.30    0.46    0.50    0.49    0.46    0.46    0.06    0.09    0.06    0.05    0.04    0.02    0.02    0.03    0.01    0.01    0.21    0.40    0.53    0.33    0.35    0.48    0.52    0.52    0.47    0.47
 1989 226   127   133     4    56.1    54.6     1.4     0.0   76.56  155.88    4.61    0.00    0.00   76.56  158.28   21.34    0.00    0.15     0.3     0.5    0.32    0.34    0.48    0.52    0.51    0.47    0.47    0.04    0.08    0.06    0.05    0.03    0.02    0.02    0.03    0.01    0.01    0.19    0.43    0.55    0.37    0.37    0.49    0.53    0.54    0.48    0.48
 1989 227   128   133     4    56.3    54.9     1.4     0.0   77.37  156.70    4.61    0.00    0.00   77.37  158.85   21.34    0.00    0.16     0.4     0.5    0.35    0.37    0.49    0.29    0.53    0.48    0.47    0.06    0.09    0.06    0.05    0.03    0.02    0.02    0.03    0.01    0.01    0.22    0.44    0.56    0.40    0.40    0.51    0.30    0.56    0.49    0.48
 1989 228   129   133     4    56.4    55.0     1.4     0.0   78.21  157.60    4.61    0.00    0.00   78.21  159.60   21.34    0.00    0.13     0.3     0.6    0.41    0.40    0.50    0.30    0.40    0.48    0.48    0.04    0.08    0.05    0.04    0.03    0.02    0.02    0.03    0.01    0.01    0.17    0.43    0.61    0.45    0.43    0.52    0.32    0.43    0.49    0.49
 1989 229   130   133     4    56.4    55.1     1.4     0.0   79.05  158.42    4.62    0.00    0.00   79.05  160.37   21.34    0.00    0.15     0.4     0.3    0.41    0.43    0.52    0.34    0.44    0.49    0.49    0.06    0.09    0.06    0.04    0.02    0.02    0.02    0.03    0.01    0.01    0.20    0.44    0.32    0.45    0.45    0.53    0.36    0.46    0.50    0.50
 1989 230   131   133     4    56.7    55.4     1.4     0.0   79.88  159.28    4.62    0.00    0.00   79.88  160.94   21.34    0.00    0.13     0.4     0.3    0.44    0.46    0.26    0.35    0.46    0.50    0.50    0.04    0.08    0.05    0.04    0.02    0.02    0.02    0.03    0.01    0.01    0.18    0.44    0.37    0.48    0.48    0.28    0.37    0.49    0.51    0.51
 1989 231   132   133     4    57.3    56.0     1.4     0.0   80.70  160.06    4.63    0.00    0.00   80.70  161.12   21.34    0.00    0.15     0.4     0.3    0.44    0.47    0.30    0.37    0.48    0.52    0.51    0.06    0.09    0.06    0.04    0.03    0.02    0.02    0.03    0.01    0.01    0.21    0.45    0.38    0.48    0.50    0.32    0.39    0.51    0.53    0.52
 1989 232   133   133     4    57.7    56.4     1.4     0.0   81.51  160.87    4.63    0.00    0.00   81.51  161.52   21.34    0.00    0.10     0.3     0.4    0.50    0.54    0.33    0.38    0.50    0.45    0.52    0.04    0.09    0.06    0.04    0.03    0.02    0.02    0.03    0.01    0.01    0.15    0.38    0.43    0.55    0.57    0.34    0.40    0.53    0.46    0.53
 1989 233   134   133     4    56.9    55.5     1.5     0.0   82.29  161.59    4.64    0.00    0.00   82.29  162.17   22.27    0.00    0.12     0.3     0.4    0.47    0.28    0.32    0.39    0.51    0.46    0.47    0.06    0.09    0.06    0.05    0.03    0.02    0.02    0.03    0.01    0.01    0.18    0.39    0.43    0.52    0.32    0.34    0.40    0.54    0.47    0.48
 1989 234   135   133     4    57.1    55.6     1.5     0.0   83.07  162.35    4.64    0.00    0.00   83.07  162.78   22.27    0.00    0.09     0.3     0.4    0.49    0.37    0.35    0.40    0.39    0.47    0.47    0.05    0.09    0.07    0.05    0.04    0.02    0.02    0.03    0.01    0.01    0.14    0.35    0.45    0.55    0.41    0.37    0.42    0.42    0.48    0.48
 1989 235   136   133     4    55.7    54.1     1.5     0.0   83.82  163.03    4.65    0.00    0.00   83.82  162.94   24.28    0.00    0.11     0.3     0.4    0.46    0.38    0.34    0.40    0.41    0.47    0.48    0.06    0.10    0.07    0.06    0.05    0.02    0.02    0.03    0.01    0.01    0.17    0.36    0.44    0.53    0.42    0.36    0.42    0.44    0.48    0.49
 1989 236   137   133     4    55.2    53.7     1.5     0.0   84.57  163.77    4.66    0.00    0.00   84.57  163.18   25.23    0.00    0.15     0.3     0.4    0.46    0.39    0.34    0.41    0.43    0.47    0.49    0.05    0.09    0.07    0.06    0.05    0.03    0.02    0.03    0.01    0.01    0.20    0.38    0.45    0.52    0.44    0.37    0.43    0.46    0.48    0.50
 1989 237   138   133     4    55.7    54.2     1.5     0.0   85.30  164.54    4.66    0.00    0.00   85.30  163.32   25.32    0.00    0.18     0.3     0.4    0.47    0.40    0.36    0.42    0.45    0.48    0.49    0.04    0.08    0.07    0.06    0.05    0.02    0.02    0.03    0.01    0.01    0.22    0.41    0.46    0.53    0.45    0.39    0.44    0.48    0.49    0.51
 1989 238   139   133     4    56.3    54.8     1.5     0.0   86.02  165.31    4.66    0.00    0.00   86.02  163.47   25.32    0.00    0.21     0.4     0.4    0.49    0.42    0.38    0.43    0.47    0.48    0.50    0.03    0.06    0.06    0.05    0.05    0.02    0.02    0.03    0.01    0.01    0.24    0.43    0.48    0.54    0.47    0.40    0.45    0.50    0.49    0.51
 1989 239   140   133     4    56.9    55.5     1.4     0.0   86.73  166.10    4.66    0.00    0.00   86.73  163.61   25.32    0.00    0.23     0.4     0.5    0.52    0.45    0.39    0.44    0.49    0.49    0.51    0.02    0.05    0.04    0.04    0.04    0.02    0.02    0.03    0.01    0.01    0.25    0.46    0.50    0.56    0.49    0.41    0.46    0.52    0.50    0.52
 1989 240   141   133     4    57.1    55.8     1.3     0.0   87.44  166.85    4.66    0.00    0.00   87.44  164.09   25.32    0.00    0.25     0.4     0.5    0.27    0.48    0.40    0.46    0.50    0.50    0.51    0.02    0.04    0.04    0.03    0.03    0.02    0.02    0.03    0.01    0.01    0.27    0.48    0.52    0.31    0.51    0.42    0.47    0.54    0.51    0.52
 1989 241   142   133     4    57.6    56.2     1.3     0.0   88.14  167.58    4.66    0.00    0.00   88.14  164.33   25.32    0.00    0.26     0.5     0.5    0.29    0.49    0.42    0.47    0.52    0.50    0.46    0.01    0.04    0.03    0.03    0.03    0.02    0.02    0.03    0.01    0.01    0.27    0.50    0.54    0.32    0.52    0.43    0.49    0.55    0.51    0.47
 1989 242   143   133     4    57.7    56.4     1.3     0.0   88.85  168.31    4.66    0.00    0.00   88.85  164.88   25.32    0.00    0.27     0.5     0.5    0.31    0.51    0.43    0.48    0.41    0.51    0.47    0.01    0.03    0.03    0.03    0.03    0.02    0.02    0.03    0.01    0.01    0.28    0.52    0.56    0.34    0.54    0.45    0.50    0.44    0.52    0.48
 1989 243   144   133     4    57.4    56.2     1.3     0.0   89.56  169.04    4.66    0.00    0.00   89.56  165.88   25.32    0.00    0.28     0.5     0.3    0.33    0.27    0.44    0.49    0.43    0.52    0.47    0.01    0.03    0.03    0.03    0.03    0.02    0.02    0.03    0.01    0.01    0.29    0.54    0.30    0.36    0.29    0.46    0.51    0.46    0.53    0.48
 1989 244   145   133     4    57.8    56.6     1.2     0.0   90.28  169.79    4.66    0.00    0.00   90.28  166.22   25.32    0.00    0.29     0.5     0.3    0.35    0.29    0.45    0.50    0.45    0.46    0.48    0.01    0.03    0.02    0.02    0.02    0.02    0.02    0.03    0.01    0.01    0.30    0.55    0.31    0.37    0.31    0.47    0.52    0.48    0.47    0.49
 1989 245   146   133     4    57.9    56.7     1.2     0.0   91.00  170.53    4.66    0.00    0.00   91.00  166.79   25.32    0.00    0.30     0.3     0.3    0.37    0.30    0.47    0.51    0.47    0.46    0.49    0.01    0.02    0.02    0.02    0.02    0.02    0.02    0.03    0.01    0.01    0.31    0.29    0.33    0.39    0.32    0.48    0.53    0.50    0.47    0.50
 1989 246   147   133     4    58.2    57.0     1.2     0.0   91.72  171.27    4.66    0.00    0.00   91.72  167.21   25.32    0.00    0.28     0.3     0.3    0.38    0.32    0.48    0.33    0.49    0.47    0.49    0.01    0.02    0.02    0.02    0.02    0.01    0.02    0.03    0.01    0.01    0.29    0.32    0.34    0.40    0.34    0.49    0.34    0.52    0.48    0.50
 1989 247   148   133     4    58.8    57.6     1.2     0.0   92.43  171.97    4.66    0.00    0.00   92.43  167.34   25.32    0.00    0.27     0.3     0.3    0.40    0.33    0.49    0.34    0.51    0.48    0.50    0.04    0.02    0.02    0.02    0.02    0.01    0.01    0.03    0.01    0.01    0.31    0.35    0.35    0.42    0.35    0.50    0.35    0.54    0.49    0.51
 1989 248   149   133     4    59.0    57.8     1.2     0.0   93.14  172.68    4.66    0.00    0.00   93.14  167.82   25.32    0.00    0.29     0.3     0.3    0.41    0.34    0.50    0.35    0.42    0.48    0.51    0.04    0.03    0.02    0.02    0.02    0.01    0.01    0.03    0.01    0.01    0.33    0.37    0.37    0.43    0.36    0.51    0.36    0.45    0.49    0.52
 1989 249   150   133     4    59.6    58.4     1.2     0.0   93.84  173.40    4.66    0.00    0.00   93.84  167.95   25.32    0.00    0.32     0.4     0.4    0.42    0.36    0.51    0.36    0.44    0.49    0.51    0.03    0.02    0.02    0.02    0.02    0.01    0.01    0.03    0.01    0.01    0.36    0.38    0.38    0.44    0.37    0.52    0.37    0.47    0.50    0.52
 1989 250   151   133     4    60.1    58.9     1.2     0.0   94.53  174.11    4.66    0.00    0.00   94.53  168.16   25.32    0.00    0.35     0.4     0.4    0.44    0.37    0.52    0.37    0.46    0.50    0.47    0.02    0.02    0.02    0.02    0.02    0.01    0.01    0.03    0.01    0.01    0.37    0.40    0.39    0.45    0.39    0.53    0.38    0.48    0.51    0.48
 1989 251   152   133     4    60.4    59.3     1.1     0.0   95.22  174.82    4.66    0.00    0.00   95.22  168.52   25.32    0.00    0.36     0.4     0.4    0.45    0.38    0.37    0.38    0.47    0.50    0.47    0.02    0.02    0.02    0.02    0.02    0.01    0.01    0.02    0.01    0.01    0.38    0.41    0.40    0.46    0.40    0.38    0.39    0.50    0.51    0.48
 1989 252   153   133     4    61.0    59.9     1.1     0.0   95.90  175.53    4.66    0.00    0.00   95.90  168.64   25.32    0.00    0.37     0.4     0.4    0.46    0.39    0.37    0.39    0.49    0.51    0.48    0.01    0.02    0.02    0.01    0.01    0.01    0.01    0.02    0.01    0.01    0.39    0.43    0.42    0.48    0.41    0.39    0.40    0.51    0.52    0.49
 1989 253   154   133     4    61.3    60.2     1.1     0.0   96.56  176.19    4.66    0.00    0.00   96.56  168.99   25.32    0.00    0.38     0.4     0.4    0.47    0.40    0.38    0.39    0.51    0.47    0.49    0.01    0.02    0.01    0.01    0.01    0.01    0.01    0.02    0.01    0.01    0.39    0.44    0.43    0.49    0.42    0.39    0.40    0.53    0.48    0.50
 1989 254   155   133     4    61.8    60.7     1.1     0.0   97.20  176.83    4.66    0.00    0.00   97.20  169.11   25.32    0.00    0.39     0.4     0.4    0.48    0.41    0.39    0.40    0.52    0.47    0.50    0.01    0.02    0.01    0.01    0.01    0.01    0.01    0.02    0.01    0.01    0.40    0.45    0.44    0.49    0.43    0.40    0.41    0.54    0.48    0.51
 1989 255   156   133     4    62.0    60.9     1.1     0.0   97.81  177.43    4.66    0.00    0.00   97.81  169.49   25.32    0.00    0.39     0.4     0.4    0.49    0.42    0.40    0.41    0.45    0.48    0.50    0.01    0.02    0.01    0.01    0.01    0.01    0.01    0.02    0.01    0.01    0.41    0.46    0.44    0.50    0.43    0.41    0.42    0.47    0.49    0.51
 1989 256   157   133     4    62.5    61.4     1.1     0.0   98.40  178.01    4.66    0.00    0.00   98.40  169.60   25.32    0.00    0.40     0.5     0.4    0.50    0.43    0.40    0.41    0.46    0.48    0.51    0.01    0.02    0.01    0.01    0.01    0.01    0.01    0.02    0.01    0.01    0.41    0.47    0.45    0.51    0.44    0.41    0.42    0.48    0.49    0.52
 1989 257   158   133     4    63.0    61.8     1.1     0.0   98.97  178.58    4.66    0.00    0.00   98.97  169.72   25.32    0.00    0.41     0.5     0.4    0.51    0.44    0.41    0.42    0.47    0.49    0.51    0.01    0.02    0.01    0.01    0.01    0.01    0.01    0.02    0.01    0.01    0.42    0.48    0.46    0.52    0.45    0.42    0.43    0.49    0.50    0.52
 1989 258   159   133     4    63.3    62.2     1.1     0.0   99.53  179.14    4.66    0.00    0.00   99.53  169.89   25.32    0.00    0.41     0.5     0.5    0.51    0.44    0.41    0.42    0.48    0.49    0.48    0.01    0.02    0.01    0.01    0.01    0.01    0.01    0.02    0.01    0.01    0.42    0.49    0.47    0.53    0.46    0.42    0.43    0.50    0.50    0.49
 1989 259   160   133     4    63.5    62.4     1.1     0.0  100.09  179.71    4.66    0.00    0.00  100.09  170.30   25.32    0.00    0.42     0.5     0.5    0.33    0.45    0.42    0.43    0.49    0.50    0.49    0.01    0.02    0.01    0.01    0.01    0.01    0.01    0.02    0.01    0.01    0.43    0.50    0.47    0.35    0.46    0.43    0.44    0.51    0.50    0.49
 1989 260   161   133     4    63.9    62.8     1.1     0.0  100.65  180.29    4.67    0.00    0.00  100.65  170.42   25.32    0.00    0.42     0.5     0.5    0.34    0.46    0.42    0.44    0.51    0.50    0.49    0.01    0.01    0.01    0.01    0.01    0.01    0.01    0.02    0.01    0.01    0.44    0.51    0.48    0.35    0.47    0.43    0.45    0.52    0.51    0.50
 1989 261   162   133     4    64.4    63.3     1.1     0.0  101.22  180.87    4.67    0.00    0.00  101.22  170.54   25.32    0.00    0.43     0.5     0.5    0.35    0.47    0.43    0.44    0.52    0.50    0.50    0.01    0.01    0.01    0.01    0.01    0.01    0.01    0.02    0.01    0.01    0.44    0.51    0.49    0.36    0.48    0.44    0.45    0.53    0.51    0.51
 1989 262   163   133     4    64.6    63.5     1.1     0.0  101.78  181.45    4.67    0.00    0.00  101.78  170.91   25.32    0.00    0.44     0.5     0.5    0.36    0.47    0.43    0.45    0.45    0.51    0.50    0.01    0.01    0.01    0.01    0.01    0.01    0.01    0.02    0.01    0.01    0.45    0.52    0.49    0.37    0.48    0.44    0.46    0.47    0.52    0.51
 1989 263   164   133     4    65.0    63.9     1.1     0.0  102.33  182.01    4.67    0.00    0.00  102.33  171.03   25.32    0.00    0.44     0.5     0.5    0.36    0.48    0.44    0.45    0.46    0.51    0.51    0.01    0.01    0.01    0.01    0.01    0.01    0.01    0.02    0.01    0.01    0.46    0.53    0.50    0.37    0.49    0.45    0.46    0.48    0.52    0.51

*DSSAT Cropping System Model Ver. 4.8.2.006 -  APR 10, 2025 22:06:01

*RUN   2        : CO2 Enrichment - 550 ppm  CRGRO048 AZMC8901    2
 MODEL          : CRGRO048 - Cotton
 EXPERIMENT     : AZMC8901 CO 1989 FACE EXPERIMENT
 DATA PATH      :
 TREATMENT  2   : CO2 Enrichment - 550 ppm  CRGRO048
  
!                                                                                                                                      NO3 (ppm) at soil dep. (cm):                                                    NH4 (ppm) at soil dep. (cm):                                                    Total Inorganic N @dep(ppm):
!                                                                                                                                       0-5    5-15   15-30   30-40   40-50   50-60   60-70   70-90  90-110 110-210     0-5    5-15   15-30   30-40   40-50   50-60   60-70   70-90  90-110 110-210     0-5    5-15   15-30   30-40   40-50   50-60   60-70   70-90  90-110 110-210
@YEAR DOY   DAS  NAPC  NI#M    NIAD    NITD    NHTD   NURTD    NMNC    NITC    NDNC    NIMC    AMLC   NNMNC    NUCM    NLCC    TDNC    NI1D    NI2D    NI3D    NI4D    NI5D    NI6D    NI7D    NI8D    NI9D    NI10    NH1D    NH2D    NH3D    NH4D    NH5D    NH6D    NH7D    NH8D    NH9D    NH10    NT1D    NT2D    NT3D    NT4D    NT5D    NT6D    NT7D    NT8D    NT9D    NT10    
 1989 099     0     0     0    31.5    31.4     0.0     0.0    0.00    0.00    0.00    0.00    0.00    0.00    0.00    0.00    0.00    3.00     3.0     3.0    2.00    2.00    1.00    1.00    1.00    0.75    0.50    0.00    0.00    0.00    0.00    0.00    0.00    0.00    0.00    0.00    0.00    3.00    3.00    3.00    2.00    2.00    1.00    1.00    1.00    0.75    0.50
 1989 100     1    67     1    84.2    50.2    34.0    14.8    0.52    0.01    0.00    0.00    0.00    0.52    0.00    0.00    0.00    2.53     3.2    12.8    2.01    1.99    1.01    1.00    1.00    0.75    0.50    0.02    0.02   17.57    0.01    0.01    0.01    0.01    0.01    0.00    0.00    2.55    3.26   30.42    2.02    2.00    1.02    1.01    1.01    0.75    0.51
 1989 101     2    67     1    91.9    67.2    24.7     7.5    1.04   17.05    0.00    0.00    0.00    1.04    0.00    0.00    0.00    2.54     3.3    21.6    2.06    1.99    1.02    1.00    1.01    0.75    0.50    0.03    0.03   12.56    0.02    0.02    0.01    0.01    0.02    0.01    0.01    2.58    3.28   34.19    2.08    2.01    1.03    1.01    1.03    0.76    0.51
 1989 102     3    67     1    96.0    79.0    17.0     3.9    1.54   28.89    0.00    0.00    0.00    1.54    0.00    0.00    0.00    2.56     3.3    27.6    2.14    1.99    1.03    1.01    1.01    0.75    0.51    0.04    0.03    8.41    0.04    0.02    0.01    0.01    0.03    0.01    0.01    2.60    3.30   36.04    2.17    2.01    1.04    1.02    1.04    0.76    0.52
 1989 103     4    67     1    98.4    86.7    11.7     2.1    2.03   36.57    0.00    0.00    0.00    2.03    0.00    0.00    0.00    2.58     3.3    31.4    2.23    2.00    1.04    1.01    1.02    0.76    0.51    0.04    0.04    5.54    0.04    0.02    0.02    0.02    0.03    0.01    0.01    2.63    3.32   36.94    2.28    2.02    1.06    1.03    1.05    0.77    0.52
 1989 104     5    67     1    99.8    91.6     8.1     1.1    2.51   41.55    0.00    0.00    0.00    2.51    0.00    0.00    0.00    2.61     3.3    33.8    2.34    2.00    1.05    1.02    1.04    0.76    0.51    0.04    0.04    3.63    0.05    0.03    0.02    0.02    0.03    0.01    0.01    2.65    3.33   37.38    2.39    2.03    1.07    1.04    1.07    0.77    0.53
 1989 105     6    67     1   100.7    94.9     5.8     0.6    2.97   44.81    0.00    0.00    0.00    2.97    0.00    0.00    0.00    2.64     3.3    35.2    2.44    2.01    1.07    1.03    1.05    0.76    0.52    0.04    0.04    2.40    0.05    0.03    0.02    0.02    0.03    0.01    0.01    2.68    3.34   37.59    2.49    2.03    1.08    1.04    1.08    0.77    0.53
 1989 106     7    67     1   101.4    97.2     4.3     0.3    3.42   47.09    0.00    0.00    0.00    3.42    0.00    0.00    0.00    2.67     3.3    36.1    2.54    2.01    1.08    1.03    1.06    0.77    0.52    0.05    0.04    1.57    0.04    0.03    0.02    0.02    0.03    0.01    0.01    2.71    3.35   37.68    2.59    2.04    1.10    1.05    1.09    0.78    0.53
 1989 107     8    67     1   102.0    98.8     3.2     0.2    3.88   48.75    0.00    0.00    0.00    3.88    0.00    0.00    0.00    2.70     3.3    36.7    2.64    2.02    1.09    1.04    1.07    0.77    0.53    0.05    0.04    1.01    0.04    0.03    0.02    0.02    0.03    0.01    0.01    2.75    3.37   37.71    2.68    2.05    1.11    1.06    1.10    0.78    0.54
 1989 108     9    67     1   102.6   100.0     2.5     0.1    4.34   49.97    0.00    0.00    0.00    4.34    0.00    0.00    0.00    2.73     3.3    37.1    2.73    2.03    1.10    1.04    1.08    0.77    0.53    0.05    0.04    0.65    0.04    0.03    0.02    0.02    0.03    0.01    0.01    2.78    3.38   37.71    2.77    2.05    1.12    1.06    1.12    0.78    0.54
 1989 109    10    67     1   103.1   101.0     2.1     0.1    4.80   50.92    0.00    0.00    0.00    4.80    0.00    0.00    0.00    2.77     3.3    37.3    2.81    2.04    1.11    1.05    1.09    0.78    0.54    0.05    0.04    0.41    0.03    0.03    0.02    0.02    0.03    0.01    0.01    2.82    3.39   37.70    2.85    2.06    1.13    1.07    1.13    0.79    0.55
 1989 110    11    67     1   103.6   101.8     1.8     0.0    5.27   51.70    0.00    0.00    0.00    5.27    0.00    0.00    0.00    2.81     3.4    37.4    2.89    2.04    1.13    1.06    1.11    0.78    0.54    0.05    0.04    0.26    0.03    0.03    0.02    0.02    0.03    0.01    0.01    2.85    3.40   37.68    2.92    2.07    1.14    1.08    1.14    0.79    0.55
 1989 111    12    67     1   104.1   102.5     1.6     0.0    5.75   52.38    0.00    0.00    0.00    5.75    0.00    0.00    0.00    2.84     3.4    37.5    2.96    2.06    1.14    1.07    1.12    0.78    0.55    0.05    0.04    0.16    0.03    0.03    0.02    0.02    0.03    0.01    0.01    2.89    3.41   37.65    2.99    2.08    1.16    1.08    1.15    0.79    0.56
 1989 112    13    67     1   104.6   103.1     1.5     0.0    6.24   52.99    0.00    0.00    0.00    6.24    0.00    0.00    0.00    2.88     3.4    37.5    3.03    2.07    1.15    1.07    1.13    0.79    0.55    0.05    0.04    0.10    0.03    0.03    0.02    0.02    0.03    0.01    0.01    2.93    3.42   37.63    3.06    2.09    1.17    1.09    1.17    0.80    0.56
 1989 113    14    67     1   105.1   103.6     1.4     0.0    6.73   53.56    0.00    0.00    0.00    6.73    0.00    0.00    0.00    2.93     3.4    37.5    3.10    2.08    1.16    1.08    1.14    0.79    0.56    0.05    0.04    0.07    0.03    0.03    0.02    0.02    0.03    0.01    0.01    2.97    3.43   37.61    3.12    2.10    1.18    1.10    1.18    0.80    0.57
 1989 114    15    67     1   105.6   104.1     1.4     0.0    7.22   54.08    0.00    0.00    0.00    7.22    0.00    0.00    0.00    0.62     2.9    35.5    7.73    2.15    1.17    1.09    1.16    0.79    0.56    0.05    0.04    0.05    0.03    0.03    0.02    0.02    0.03    0.01    0.01    0.66    2.92   35.58    7.75    2.17    1.19    1.11    1.19    0.81    0.57
 1989 115    16    67     1   106.0   104.6     1.5     0.0    7.68   54.49    0.00    0.00    0.00    7.68    0.00    0.00    0.00    0.59     2.7    32.3   10.58    3.97    1.39    1.10    1.17    0.80    0.57    0.06    0.05    0.06    0.03    0.03    0.02    0.02    0.03    0.01    0.01    0.65    2.74   32.39   10.61    4.00    1.41    1.12    1.21    0.81    0.58
 1989 116    17    67     1   106.5   105.0     1.5     0.0    8.12   54.91    0.00    0.00    0.00    8.12    0.00    0.00    0.00    0.62     2.6    30.5   12.11    4.74    1.89    1.11    1.18    0.80    0.57    0.06    0.06    0.06    0.03    0.03    0.02    0.02    0.03    0.01    0.01    0.67    2.65   30.53   12.14    4.77    1.90    1.12    1.22    0.81    0.58
 1989 117    18    67     1   106.8   105.4     1.5     0.0    8.51   55.29    0.00    0.00    0.00    8.51    0.00    0.00    0.00    0.64     2.5    29.2   13.06    5.32    2.22    1.13    1.19    0.80    0.57    0.05    0.06    0.06    0.04    0.03    0.02    0.02    0.03    0.01    0.01    0.69    2.60   29.29   13.09    5.35    2.24    1.14    1.23    0.82    0.59
 1989 118    19    67     1   107.2   105.7     1.5     0.0    8.87   55.65    0.00    0.00    0.00    8.87    0.00    0.00    0.00    0.15     1.7    23.2   18.41    9.27    2.74    1.21    1.20    0.81    0.58    0.05    0.07    0.06    0.04    0.03    0.02    0.02    0.03    0.01    0.01    0.20    1.74   23.26   18.44    9.30    2.76    1.22    1.24    0.82    0.59
 1989 119    20    67     1   107.3   105.8     1.5     0.0    9.20   55.96    0.21    0.00    0.00    9.20    0.02    0.00    0.00    0.14     1.6    21.0   17.81   10.34    3.92    2.22    1.33    0.81    0.58    0.06    0.07    0.06    0.04    0.03    0.02    0.02    0.03    0.01    0.01    0.20    1.63   21.03   17.84   10.38    3.95    2.24    1.36    0.82    0.59
 1989 120    21    67     1   107.4   105.9     1.5     0.0    9.54   56.28    0.34    0.00    0.00    9.54    0.05    0.00    0.00    0.16     1.5    19.6   17.26   10.85    4.68    2.62    1.59    0.81    0.58    0.05    0.07    0.05    0.04    0.04    0.02    0.02    0.03    0.01    0.01    0.21    1.58   19.70   17.30   10.89    4.71    2.64    1.63    0.82    0.60
 1989 121    22    67     1   107.6   106.2     1.5     0.0    9.90   56.62    0.44    0.00    0.00    9.90    0.09    0.00    0.00    0.06     1.1    16.8   18.50   13.13    5.42    2.74    1.62    0.82    0.59    0.04    0.08    0.05    0.04    0.04    0.03    0.02    0.03    0.01    0.01    0.10    1.16   16.88   18.54   13.17    5.45    2.76    1.65    0.83    0.60
 1989 122    23    67     1   107.8   106.3     1.5     0.0   10.29   56.96    0.63    0.00    0.00   10.29    0.14    0.00    0.00    0.06     1.0    15.2   17.13   13.27    6.49    3.58    2.14    0.88    0.59    0.05    0.08    0.05    0.04    0.05    0.03    0.03    0.03    0.01    0.01    0.11    1.09   15.24   17.17   13.32    6.52    3.61    2.18    0.89    0.60
 1989 123    24    67     1   108.0   106.4     1.6     0.0   10.72   57.34    0.81    0.00    0.00   10.72    0.19    0.00    0.00    0.08     1.0    14.2   16.20   13.17    7.09    4.16    2.30    1.15    0.60    0.04    0.09    0.05    0.04    0.05    0.03    0.03    0.04    0.01    0.01    0.12    1.06   14.26   16.24   13.22    7.12    4.19    2.34    1.17    0.61
 1989 124    25    67     1   108.2   106.7     1.5     0.0   11.18   57.80    0.94    0.00    0.00   11.18    0.26    0.00    0.00    0.10     1.0    13.5   15.55   13.04    7.47    4.57    2.44    1.35    0.60    0.03    0.08    0.05    0.04    0.05    0.03    0.03    0.04    0.01    0.01    0.13    1.05   13.60   15.59   13.09    7.51    4.60    2.48    1.36    0.62
 1989 125    26    67     1   108.5   107.0     1.5     0.0   11.67   58.28    1.04    0.00    0.00   11.67    0.33    0.00    0.00    0.03     0.6    10.1   14.77   15.03    9.60    5.88    2.57    1.37    0.62    0.02    0.08    0.05    0.04    0.04    0.03    0.03    0.04    0.01    0.01    0.06    0.66   10.14   14.80   15.07    9.63    5.91    2.61    1.39    0.63
 1989 126    27    67     1   108.6   107.0     1.6     0.0   12.18   58.70    1.36    0.00    0.00   12.18    0.42    0.00    0.00    0.03     0.5     9.1   13.27   14.05    9.75    6.61    3.04    1.77    1.17    0.04    0.09    0.05    0.04    0.05    0.04    0.04    0.04    0.01    0.01    0.07    0.63    9.12   13.31   14.10    9.79    6.65    3.08    1.78    1.19
 1989 127    28    67     1   108.8   107.1     1.6     0.0   12.72   59.19    1.58    0.00    0.00   12.72    0.52    0.00    0.00    0.06     0.5     8.5   12.32   13.34    9.74    7.00    3.37    1.95    1.47    0.03    0.09    0.05    0.04    0.05    0.04    0.04    0.05    0.01    0.01    0.09    0.63    8.52   12.37   13.39    9.78    7.04    3.42    1.96    1.48
 1989 128    29    67     1   109.0   107.4     1.6     0.0   13.26   59.72    1.73    0.00    0.00   13.26    0.63    0.00    0.00    0.08     0.5     8.1   11.69   12.83    9.69    7.24    3.61    2.08    1.57    0.02    0.08    0.05    0.04    0.05    0.04    0.04    0.06    0.01    0.01    0.10    0.63    8.11   11.73   12.88    9.73    7.27    3.67    2.10    1.58
 1989 129    30    67     1   109.3   107.7     1.6     0.0   13.82   60.27    1.84    0.00    0.00   13.82    0.77    0.00    0.00    0.03     0.4     6.3   11.01   13.82   10.89    7.83    3.73    2.12    1.57    0.02    0.07    0.05    0.04    0.04    0.04    0.04    0.06    0.01    0.01    0.05    0.44    6.37   11.05   13.86   10.93    7.87    3.79    2.13    1.58
 1989 130    31    67     1   109.4   107.8     1.7     0.0   14.40   60.77    2.15    0.00    0.00   14.40    0.90    0.00    0.00    0.03     0.4     5.7    9.73   12.50   10.44    8.20    4.24    2.45    1.86    0.04    0.08    0.06    0.04    0.05    0.04    0.04    0.06    0.02    0.01    0.07    0.44    5.71    9.78   12.54   10.48    8.24    4.30    2.46    1.87
 1989 131    32    67     1   109.6   107.9     1.7     0.0   14.96   61.29    2.34    0.00    0.00   14.96    1.08    0.00    0.00    0.03     0.3     4.5    8.52   11.97   10.68    9.23    4.87    2.58    1.91    0.03    0.08    0.06    0.05    0.05    0.04    0.04    0.06    0.02    0.01    0.07    0.35    4.55    8.57   12.02   10.73    9.27    4.93    2.60    1.92
 1989 132    33    67     1   109.7   107.9     1.8     0.0   15.48   61.73    2.63    0.00    0.00   15.48    1.21    0.00    0.00    0.05     0.3     4.1    7.57   10.75    9.99    9.11    5.19    2.95    2.24    0.04    0.09    0.07    0.05    0.05    0.05    0.04    0.07    0.02    0.02    0.09    0.35    4.15    7.62   10.80   10.04    9.15    5.26    2.96    2.25
 1989 133    34    67     1   109.9   108.0     1.8     0.0   15.97   62.14    2.82    0.00    0.00   15.97    1.33    0.00    0.00    0.07     0.3     3.8    6.93    9.90    9.49    8.95    5.40    3.20    2.48    0.03    0.09    0.07    0.05    0.05    0.05    0.05    0.07    0.02    0.02    0.10    0.36    3.87    6.99    9.95    9.54    9.00    5.47    3.22    2.50
 1989 134    35    67     1   110.0   108.2     1.8     0.0   16.41   62.57    2.93    0.00    0.00   16.41    1.49    0.00    0.00    0.08     0.3     3.6    6.51    9.33    9.14    8.81    5.52    3.37    2.65    0.02    0.09    0.07    0.05    0.05    0.05    0.05    0.08    0.02    0.02    0.11    0.37    3.67    6.56    9.38    9.19    8.86    5.60    3.39    2.67
 1989 135    36    67     1   110.2   108.4     1.8     0.0   16.80   62.97    3.00    0.00    0.00   16.80    1.64    0.00    0.00    0.09     0.3     3.5    6.22    8.93    8.90    8.70    5.60    3.49    2.78    0.02    0.09    0.07    0.05    0.05    0.05    0.04    0.08    0.02    0.02    0.11    0.38    3.54    6.27    8.98    8.95    8.74    5.68    3.51    2.79
 1989 136    37    67     1   110.4   108.5     1.8     0.0   17.19   63.34    3.05    0.00    0.00   17.19    1.80    0.00    0.00    0.10     0.3     3.4    6.03    8.67    8.73    8.61    5.65    3.58    2.86    0.02    0.08    0.06    0.05    0.05    0.05    0.04    0.08    0.02    0.02    0.12    0.39    3.45    6.08    8.72    8.78    8.65    5.73    3.60    2.87
 1989 137    38    67     1   110.6   108.8     1.8     0.0   17.57   63.76    3.09    0.00    0.00   17.57    1.94    0.00    0.00    0.11     0.3     3.3    5.90    8.48    8.62    8.55    5.69    3.64    2.91    0.02    0.07    0.06    0.05    0.05    0.04    0.04    0.08    0.02    0.02    0.12    0.41    3.39    5.96    8.53    8.67    8.59    5.77    3.66    2.93
 1989 138    39    67     1   110.8   109.0     1.8     0.0   17.97   64.17    3.11    0.00    0.00   17.97    2.10    0.00    0.00    0.11     0.4     3.3    5.81    8.35    8.54    8.50    5.71    3.68    2.95    0.02    0.06    0.06    0.05    0.05    0.04    0.04    0.08    0.02    0.02    0.13    0.42    3.34    5.86    8.40    8.59    8.55    5.79    3.70    2.97
 1989 139    40    89     2   127.4   115.4    12.0     5.6   18.38   64.61    3.13    0.00    0.00   18.38    2.32    0.00    0.00    0.02     0.2     5.2    4.07    6.97    8.15    9.16    6.93    4.34    3.22    0.02    0.05    5.45    0.05    0.05    0.04    0.04    0.08    0.02    0.02    0.04    0.23   10.61    4.12    7.01    8.19    9.20    7.01    4.36    3.24
[...]
 1989 211   112   133     4    56.4    55.0     1.4     0.0   64.67  142.28    4.50    0.00    0.00   64.67  153.77   13.77    0.00    0.08     0.3     0.3    0.35    0.49    0.50    0.27    0.41    0.51    0.46    0.07    0.08    0.04    0.03    0.02    0.02    0.02    0.03    0.01    0.01    0.15    0.40    0.36    0.37    0.52    0.52    0.29    0.44    0.52    0.47
 1989 212   113   133     4    56.9    55.5     1.4     0.0   65.43  143.03    4.50    0.00    0.00   65.43  154.06   13.77    0.00    0.08     0.2     0.3    0.41    0.57    0.54    0.29    0.43    0.51    0.47    0.05    0.08    0.05    0.03    0.03    0.02    0.02    0.03    0.01    0.01    0.13    0.32    0.39    0.44    0.60    0.56    0.30    0.46    0.53    0.48
 1989 213   114   133     4    56.2    54.7     1.5     0.0   66.17  143.70    4.50    0.00    0.00   66.17  155.46   13.77    0.00    0.10     0.2     0.3    0.39    0.27    0.27    0.32    0.46    0.43    0.47    0.06    0.09    0.06    0.04    0.04    0.02    0.02    0.03    0.01    0.01    0.16    0.33    0.39    0.43    0.31    0.28    0.34    0.49    0.44    0.48
 1989 214   115   133     4    56.7    55.2     1.5     0.0   66.95  144.47    4.50    0.00    0.00   66.95  155.74   13.77    0.00    0.11     0.3     0.4    0.41    0.30    0.29    0.34    0.48    0.44    0.48    0.05    0.08    0.06    0.05    0.04    0.02    0.02    0.03    0.01    0.01    0.15    0.34    0.42    0.46    0.34    0.30    0.35    0.51    0.45    0.49
 1989 215   116   133     4    57.2    55.7     1.5     0.0   67.73  145.23    4.51    0.00    0.00   67.73  156.02   13.77    0.00    0.12     0.3     0.4    0.43    0.33    0.30    0.35    0.50    0.45    0.49    0.06    0.09    0.06    0.05    0.04    0.02    0.02    0.03    0.01    0.01    0.18    0.36    0.43    0.48    0.37    0.32    0.37    0.53    0.46    0.50
 1989 216   117   133     4    57.6    56.1     1.5     0.0   68.52  146.02    4.51    0.00    0.00   68.52  156.38   13.77    0.00    0.08     0.2     0.4    0.44    0.41    0.36    0.38    0.53    0.46    0.49    0.06    0.09    0.06    0.06    0.05    0.02    0.02    0.03    0.01    0.01    0.14    0.31    0.43    0.50    0.46    0.38    0.40    0.56    0.47    0.50
 1989 217   118   133     4    57.6    56.0     1.6     0.0   69.30  146.72    4.52    0.00    0.00   69.30  157.19   13.78    0.00    0.10     0.2     0.4    0.42    0.40    0.35    0.37    0.38    0.47    0.52    0.07    0.10    0.07    0.06    0.06    0.03    0.02    0.03    0.01    0.01    0.18    0.33    0.43    0.48    0.46    0.38    0.39    0.41    0.49    0.53
 1989 218   119   133     4    58.0    56.4     1.6     0.0   70.08  147.52    4.53    0.00    0.00   70.08  157.56   13.78    0.00    0.11     0.2     0.4    0.46    0.43    0.36    0.40    0.41    0.48    0.45    0.05    0.09    0.07    0.06    0.06    0.04    0.02    0.03    0.01    0.01    0.16    0.32    0.45    0.53    0.49    0.40    0.42    0.44    0.49    0.46
 1989 219   120   133     4    56.4    54.8     1.6     0.0   70.86  148.24    4.54    0.00    0.00   70.86  157.81   15.87    0.00    0.12     0.2     0.4    0.44    0.43    0.36    0.39    0.42    0.48    0.46    0.06    0.10    0.08    0.07    0.06    0.04    0.03    0.03    0.01    0.01    0.19    0.34    0.45    0.51    0.49    0.40    0.41    0.45    0.49    0.47
 1989 220   121   133     4    57.0    55.4     1.6     0.0   71.65  149.08    4.54    0.00    0.00   71.65  158.03   15.87    0.00    0.12     0.3     0.4    0.47    0.47    0.38    0.41    0.44    0.48    0.47    0.05    0.09    0.07    0.07    0.06    0.04    0.02    0.03    0.01    0.01    0.17    0.35    0.48    0.54    0.52    0.42    0.43    0.47    0.49    0.48
 1989 221   122   133     4    56.1    54.5     1.6     0.0   72.44  149.84    4.55    0.00    0.00   72.44  158.25   17.27    0.00    0.14     0.3     0.4    0.47    0.47    0.39    0.41    0.46    0.49    0.48    0.06    0.10    0.07    0.07    0.06    0.04    0.03    0.03    0.01    0.01    0.20    0.37    0.48    0.53    0.53    0.43    0.44    0.49    0.50    0.49
 1989 222   123   133     4    56.7    55.2     1.5     0.0   73.24  150.70    4.56    0.00    0.00   73.24  158.44   17.27    0.00    0.16     0.3     0.4    0.49    0.50    0.41    0.44    0.48    0.50    0.49    0.04    0.09    0.07    0.06    0.05    0.04    0.02    0.03    0.01    0.01    0.20    0.40    0.50    0.55    0.55    0.45    0.46    0.51    0.51    0.50
 1989 223   124   133     4    56.4    54.9     1.5     0.0   74.04  151.50    4.56    0.00    0.00   74.04  158.74   18.07    0.00    0.17     0.3     0.4    0.50    0.51    0.42    0.45    0.50    0.50    0.50    0.07    0.09    0.06    0.06    0.05    0.04    0.02    0.03    0.01    0.01    0.23    0.41    0.51    0.56    0.56    0.46    0.47    0.53    0.51    0.51
 1989 224   125   133     4    56.7    55.2     1.5     0.0   74.82  152.32    4.57    0.00    0.00   74.82  159.27   18.07    0.00    0.13     0.3     0.5    0.55    0.29    0.44    0.46    0.52    0.51    0.51    0.05    0.08    0.06    0.05    0.05    0.04    0.02    0.03    0.01    0.01    0.18    0.39    0.56    0.61    0.34    0.48    0.48    0.55    0.52    0.52
 1989 225   126   133     4    55.4    53.9     1.5     0.0   75.61  153.08    4.57    0.00    0.00   75.61  160.39   18.99    0.00    0.15     0.3     0.5    0.28    0.31    0.42    0.48    0.38    0.51    0.52    0.06    0.09    0.06    0.05    0.05    0.04    0.02    0.03    0.01    0.01    0.21    0.40    0.55    0.34    0.35    0.46    0.49    0.41    0.52    0.53
 1989 226   127   133     4    55.9    54.5     1.5     0.0   76.41  153.95    4.58    0.00    0.00   76.41  160.68   18.99    0.00    0.15     0.3     0.5    0.33    0.35    0.45    0.49    0.40    0.52    0.45    0.04    0.09    0.06    0.05    0.03    0.02    0.02    0.03    0.01    0.01    0.19    0.43    0.57    0.38    0.38    0.48    0.51    0.43    0.53    0.46
 1989 227   128   133     4    55.8    54.4     1.4     0.0   77.22  154.79    4.58    0.00    0.00   77.22  161.61   18.99    0.00    0.17     0.4     0.3    0.34    0.37    0.47    0.52    0.43    0.44    0.46    0.06    0.09    0.06    0.05    0.03    0.02    0.02    0.03    0.01    0.01    0.23    0.45    0.33    0.39    0.40    0.49    0.53    0.46    0.45    0.47
 1989 228   129   133     4    56.1    54.7     1.4     0.0   78.06  155.69    4.58    0.00    0.00   78.06  162.17   18.99    0.00    0.13     0.4     0.3    0.38    0.41    0.48    0.26    0.45    0.45    0.46    0.04    0.08    0.05    0.04    0.03    0.02    0.02    0.03    0.01    0.01    0.17    0.43    0.40    0.43    0.43    0.50    0.28    0.48    0.46    0.47
 1989 229   130   133     4    56.7    55.3     1.4     0.0   78.91  156.51    4.59    0.00    0.00   78.91  162.34   18.99    0.00    0.15     0.4     0.4    0.39    0.42    0.50    0.31    0.48    0.46    0.47    0.06    0.09    0.06    0.04    0.03    0.02    0.02    0.03    0.01    0.01    0.21    0.44    0.41    0.43    0.45    0.51    0.32    0.51    0.47    0.48
 1989 230   131   133     4    57.4    56.0     1.4     0.0   79.75  157.38    4.59    0.00    0.00   79.75  162.50   18.99    0.00    0.14     0.4     0.4    0.43    0.46    0.51    0.32    0.50    0.47    0.48    0.04    0.08    0.06    0.04    0.03    0.02    0.02    0.03    0.01    0.01    0.18    0.44    0.46    0.47    0.48    0.53    0.34    0.53    0.48    0.49
 1989 231   132   133     4    57.6    56.2     1.4     0.0   80.57  158.16    4.60    0.00    0.00   80.57  163.15   18.99    0.00    0.15     0.4     0.4    0.44    0.47    0.29    0.34    0.52    0.48    0.50    0.06    0.09    0.06    0.04    0.03    0.02    0.02    0.03    0.01    0.01    0.21    0.45    0.47    0.48    0.50    0.30    0.35    0.55    0.49    0.51
 1989 232   133   133     4    57.7    56.3     1.4     0.0   81.39  158.99    4.60    0.00    0.00   81.39  163.84   18.99    0.00    0.11     0.3     0.4    0.52    0.55    0.32    0.35    0.37    0.49    0.50    0.04    0.09    0.06    0.04    0.03    0.02    0.02    0.03    0.01    0.01    0.15    0.38    0.50    0.56    0.57    0.33    0.37    0.40    0.50    0.51
 1989 233   134   133     4    56.2    54.7     1.5     0.0   82.17  159.69    4.61    0.00    0.00   82.17  164.73   20.36    0.00    0.12     0.3     0.4    0.26    0.25    0.30    0.36    0.39    0.49    0.51    0.06    0.09    0.07    0.05    0.04    0.02    0.02    0.03    0.01    0.01    0.18    0.40    0.49    0.32    0.29    0.32    0.37    0.42    0.50    0.52
 1989 234   135   133     4    56.8    55.4     1.5     0.0   82.96  160.47    4.61    0.00    0.00   82.96  164.88   20.36    0.00    0.10     0.3     0.4    0.33    0.31    0.33    0.38    0.41    0.49    0.52    0.05    0.09    0.07    0.06    0.04    0.02    0.02    0.03    0.01    0.01    0.14    0.36    0.50    0.39    0.35    0.35    0.39    0.44    0.50    0.53
 1989 235   136   133     4    55.2    53.7     1.5     0.0   83.71  161.16    4.62    0.00    0.00   83.71  165.14   22.45    0.00    0.11     0.3     0.4    0.33    0.31    0.31    0.37    0.43    0.49    0.46    0.06    0.10    0.07    0.06    0.05    0.03    0.02    0.03    0.01    0.01    0.17    0.37    0.49    0.40    0.36    0.34    0.39    0.46    0.50    0.47
 1989 236   137   133     4    54.9    53.3     1.6     0.0   84.46  161.90    4.62    0.00    0.00   84.46  165.28   23.43    0.00    0.15     0.3     0.4    0.35    0.32    0.31    0.38    0.44    0.49    0.47    0.05    0.09    0.07    0.06    0.05    0.03    0.02    0.03    0.01    0.01    0.20    0.39    0.50    0.41    0.37    0.34    0.40    0.47    0.50    0.48
 1989 237   138   133     4    55.3    53.8     1.5     0.0   85.20  162.67    4.63    0.00    0.00   85.20  165.41   23.59    0.00    0.18     0.3     0.4    0.36    0.33    0.33    0.39    0.46    0.50    0.48    0.04    0.08    0.07    0.06    0.05    0.02    0.02    0.03    0.01    0.01    0.23    0.41    0.51    0.42    0.39    0.36    0.41    0.49    0.51    0.49
 1989 238   139   133     4    55.9    54.4     1.5     0.0   85.93  163.46    4.63    0.00    0.00   85.93  165.55   23.59    0.00    0.21     0.4     0.5    0.38    0.35    0.35    0.40    0.48    0.51    0.49    0.03    0.06    0.06    0.06    0.05    0.02    0.02    0.03    0.01    0.01    0.25    0.44    0.53    0.44    0.40    0.37    0.42    0.51    0.52    0.50
 1989 239   140   133     4    56.4    55.0     1.4     0.0   86.64  164.25    4.63    0.00    0.00   86.64  165.77   23.59    0.00    0.23     0.4     0.5    0.42    0.38    0.36    0.42    0.50    0.51    0.49    0.03    0.05    0.04    0.04    0.04    0.02    0.02    0.03    0.01    0.01    0.26    0.47    0.55    0.46    0.42    0.38    0.43    0.53    0.52    0.51
 1989 240   141   133     4    56.7    55.4     1.3     0.0   87.35  165.00    4.63    0.00    0.00   87.35  166.14   23.59    0.00    0.25     0.4     0.5    0.44    0.41    0.37    0.43    0.52    0.44    0.50    0.02    0.04    0.04    0.03    0.03    0.02    0.02    0.03    0.01    0.01    0.27    0.49    0.57    0.47    0.44    0.39    0.45    0.55    0.45    0.51
 1989 241   142   133     4    56.3    55.0     1.3     0.0   88.06  165.74    4.63    0.00    0.00   88.06  167.29   23.59    0.00    0.27     0.5     0.3    0.46    0.43    0.39    0.44    0.39    0.45    0.51    0.01    0.04    0.03    0.03    0.03    0.02    0.02    0.03    0.01    0.01    0.28    0.51    0.31    0.49    0.46    0.41    0.46    0.42    0.46    0.52
 1989 242   143   133     4    56.9    55.6     1.3     0.0   88.77  166.47    4.63    0.00    0.00   88.77  167.42   23.59    0.00    0.28     0.5     0.3    0.48    0.44    0.40    0.45    0.40    0.45    0.51    0.01    0.03    0.03    0.03    0.03    0.02    0.02    0.03    0.01    0.01    0.29    0.53    0.33    0.51    0.47    0.42    0.47    0.44    0.46    0.52
 1989 243   144   133     4    57.3    56.1     1.3     0.0   89.49  167.21    4.63    0.00    0.00   89.49  167.65   23.59    0.00    0.29     0.5     0.3    0.50    0.46    0.41    0.46    0.42    0.46    0.46    0.01    0.03    0.03    0.03    0.03    0.02    0.02    0.03    0.01    0.01    0.30    0.54    0.34    0.53    0.49    0.43    0.48    0.46    0.47    0.47
 1989 244   145   133     4    57.6    56.4     1.2     0.0   90.21  167.96    4.63    0.00    0.00   90.21  168.11   23.59    0.00    0.29     0.3     0.3    0.52    0.48    0.42    0.47    0.45    0.47    0.46    0.01    0.03    0.02    0.02    0.02    0.02    0.02    0.03    0.01    0.01    0.31    0.30    0.36    0.54    0.50    0.44    0.49    0.48    0.48    0.47
 1989 245   146   133     4    57.8    56.6     1.2     0.0   90.93  168.71    4.63    0.00    0.00   90.93  168.59   23.59    0.00    0.30     0.3     0.4    0.27    0.50    0.44    0.49    0.47    0.48    0.47    0.01    0.02    0.02    0.02    0.02    0.02    0.02    0.03    0.01    0.01    0.31    0.31    0.37    0.29    0.52    0.45    0.50    0.50    0.49    0.48
 1989 246   147   133     4    58.4    57.2     1.2     0.0   91.65  169.45    4.63    0.00    0.00   91.65  168.71   23.59    0.00    0.29     0.3     0.4    0.28    0.51    0.45    0.50    0.49    0.48    0.48    0.01    0.02    0.02    0.02    0.02    0.02    0.02    0.03    0.01    0.01    0.30    0.34    0.39    0.30    0.53    0.46    0.51    0.52    0.49    0.49
 1989 247   148   133     4    58.7    57.5     1.2     0.0   92.38  170.15    4.63    0.00    0.00   92.38  169.17   23.59    0.00    0.28     0.3     0.4    0.30    0.26    0.46    0.51    0.51    0.49    0.48    0.04    0.02    0.02    0.02    0.02    0.01    0.02    0.03    0.01    0.01    0.31    0.37    0.40    0.32    0.28    0.48    0.52    0.54    0.50    0.49
 1989 248   149   133     4    59.2    58.0     1.2     0.0   93.09  170.87    4.63    0.00    0.00   93.09  169.38   23.59    0.00    0.30     0.4     0.4    0.31    0.28    0.47    0.52    0.53    0.50    0.49    0.04    0.03    0.02    0.02    0.02    0.01    0.01    0.03    0.01    0.01    0.34    0.39    0.42    0.33    0.30    0.49    0.53    0.55    0.51    0.50
 1989 249   150   133     4    59.1    57.9     1.2     0.0   93.79  171.59    4.63    0.00    0.00   93.79  170.18   23.59    0.00    0.33     0.4     0.4    0.33    0.29    0.48    0.33    0.42    0.50    0.50    0.03    0.03    0.02    0.02    0.02    0.01    0.01    0.03    0.01    0.01    0.36    0.41    0.43    0.34    0.31    0.49    0.34    0.45    0.51    0.51
 1989 250   151   133     4    59.7    58.5     1.2     0.0   94.49  172.31    4.63    0.00    0.00   94.49  170.30   23.59    0.00    0.35     0.4     0.4    0.34    0.30    0.49    0.34    0.44    0.51    0.50    0.03    0.02    0.02    0.02    0.02    0.01    0.01    0.03    0.01    0.01    0.38    0.42    0.44    0.36    0.32    0.50    0.35    0.47    0.52    0.51
 1989 251   152   133     4    60.2    59.1     1.1     0.0   95.17  173.02    4.63    0.00    0.00   95.17  170.42   23.59    0.00    0.37     0.4     0.4    0.35    0.32    0.50    0.35    0.46    0.52    0.51    0.02    0.02    0.02    0.02    0.02    0.01    0.01    0.02    0.01    0.01    0.39    0.44    0.45    0.37    0.33    0.51    0.36    0.48    0.53    0.52
 1989 252   153   133     4    60.5    59.4     1.1     0.0   95.86  173.73    4.63    0.00    0.00   95.86  170.82   23.59    0.00    0.38     0.4     0.4    0.36    0.33    0.51    0.36    0.47    0.46    0.46    0.01    0.02    0.02    0.01    0.01    0.01    0.01    0.02    0.01    0.01    0.39    0.45    0.46    0.38    0.34    0.52    0.37    0.50    0.47    0.48
 1989 253   154   133     4    61.1    59.9     1.1     0.0   96.52  174.40    4.63    0.00    0.00   96.52  170.94   23.59    0.00    0.39     0.4     0.5    0.37    0.34    0.52    0.36    0.49    0.47    0.47    0.01    0.02    0.02    0.01    0.01    0.01    0.01    0.02    0.01    0.01    0.40    0.46    0.47    0.39    0.35    0.53    0.38    0.51    0.48    0.48
 1989 254   155   133     4    61.3    60.2     1.1     0.0   97.16  175.04    4.63    0.00    0.00   97.16  171.30   23.59    0.00    0.40     0.5     0.5    0.38    0.35    0.36    0.37    0.50    0.47    0.48    0.01    0.02    0.01    0.01    0.01    0.01    0.01    0.02    0.01    0.01    0.41    0.48    0.48    0.40    0.36    0.37    0.38    0.52    0.48    0.49
 1989 255   156   133     4    61.8    60.7     1.1     0.0   97.77  175.64    4.63    0.00    0.00   97.77  171.41   23.59    0.00    0.40     0.5     0.5    0.39    0.36    0.37    0.38    0.52    0.48    0.49    0.01    0.02    0.01    0.01    0.01    0.01    0.01    0.02    0.01    0.01    0.42    0.49    0.49    0.41    0.37    0.38    0.39    0.54    0.49    0.50
 1989 256   157   133     4    62.0    60.8     1.1     0.0   98.36  176.22    4.63    0.00    0.00   98.36  171.88   23.59    0.00    0.41     0.5     0.5    0.40    0.36    0.37    0.38    0.44    0.49    0.49    0.01    0.02    0.01    0.01    0.01    0.01    0.01    0.02    0.01    0.01    0.42    0.50    0.50    0.41    0.38    0.38    0.40    0.46    0.49    0.50
 1989 257   158   133     4    62.4    61.3     1.1     0.0   98.93  176.79    4.63    0.00    0.00   98.93  171.99   23.59    0.00    0.42     0.5     0.5    0.41    0.37    0.38    0.39    0.45    0.49    0.50    0.01    0.02    0.01    0.01    0.01    0.01    0.01    0.02    0.01    0.01    0.43    0.51    0.51    0.42    0.39    0.39    0.40    0.47    0.50    0.51
 1989 258   159   133     4    62.9    61.7     1.1     0.0   99.50  177.36    4.63    0.00    0.00   99.50  172.10   23.59    0.00    0.42     0.5     0.5    0.41    0.38    0.38    0.40    0.46    0.49    0.50    0.01    0.02    0.01    0.01    0.01    0.01    0.01    0.02    0.01    0.01    0.43    0.51    0.52    0.43    0.39    0.39    0.41    0.48    0.50    0.51
 1989 259   160   133     4    63.3    62.2     1.1     0.0  100.06  177.92    4.63    0.00    0.00  100.06  172.21   23.59    0.00    0.43     0.5     0.5    0.42    0.39    0.39    0.40    0.47    0.50    0.51    0.01    0.02    0.01    0.01    0.01    0.01    0.01    0.02    0.01    0.01    0.44    0.52    0.52    0.43    0.40    0.40    0.41    0.49    0.51    0.52
 1989 260   161   133     4    63.7    62.6     1.1     0.0  100.62  178.50    4.63    0.00    0.00  100.62  172.38   23.59    0.00    0.43     0.5     0.5    0.43    0.39    0.39    0.41    0.48    0.50    0.48    0.01    0.01    0.01    0.01    0.01    0.01    0.01    0.02    0.01    0.01    0.45    0.53    0.53    0.44    0.41    0.40    0.42    0.50    0.51    0.48
 1989 261   162   133     4    63.4    62.3     1.1     0.0  101.19  179.09    4.63    0.00    0.00  101.19  173.24   23.59    0.00    0.44     0.3     0.3    0.44    0.40    0.40    0.41    0.49    0.51    0.48    0.01    0.01    0.01    0.01    0.01    0.01    0.01    0.02    0.01    0.01    0.45    0.29    0.30    0.45    0.41    0.41    0.42    0.51    0.51    0.49
 1989 262   163   133     4    63.9    62.8     1.1     0.0  101.76  179.67    4.63    0.00    0.00  101.76  173.36   23.59    0.00    0.45     0.3     0.3    0.44    0.41    0.41    0.42    0.50    0.51    0.49    0.01    0.01    0.01    0.01    0.01    0.01    0.01    0.02    0.01    0.01    0.46    0.30    0.31    0.45    0.42    0.41    0.43    0.52    0.52    0.49
 1989 263   164   133     4    64.1    63.0     1.1     0.0  102.32  180.24    4.64    0.00    0.00  102.32  173.68   23.59    0.00    0.45     0.3     0.3    0.45    0.41    0.41    0.42    0.51    0.47    0.49    0.01    0.01    0.01    0.01    0.01    0.01    0.01    0.02    0.01    0.01    0.46    0.31    0.31    0.46    0.43    0.42    0.43    0.53    0.48    0.50
