*SOIL INORGANIC N BALANCE

*DSSAT Cropping System Model Ver. 4.8.2.006 -  APR 10, 2025 22:06:00

*RUN   1        : Control - 350 ppm         CRGRO048 AZMC8901    1
 MODEL          : CRGRO048 - Cotton
 EXPERIMENT     : AZMC8901 CO 1989 FACE EXPERIMENT
 DATA PATH      :
 TREATMENT  1   : Control - 350 ppm         CRGRO048
  


!SOIL INORGANIC N BALANCE                         Initial               Final
!                                                Year/Doy            Year/Doy
!                                                1989/100            1989/263
!                                               (kg[N]/ha)          (kg[N]/ha)
! Soil N state variables:
!   Soil NO3                                        31.44               63.94
!   Soil NH4                                         0.03                1.07
!   Soil Urea                                        0.00                0.00
!   Soil N gases                                     0.00                0.38
!   Unreleased fert N                                                    0.00

! N additions:
!   Fertilizer N                                   133.00
!   Mineralized N                                  102.33

! N subtractions:
!   N immobilized                                                        0.00
!   N leached                                                           25.32
!   N loss to tile drainage                                              0.00
!   N Uptake From Soil                                                 171.03
!   NH3 loss                                                             0.00
!   N2O loss                                                             1.19
!   N2 loss                                                              3.35
!   NO loss                                                              0.53

!   Total N balance                                266.80              266.80
!   Balance                                                             0.000

!===============================================================================

*DSSAT Cropping System Model Ver. 4.8.2.006 -  APR 10, 2025 22:06:01

*RUN   2        : CO2 Enrichment - 550 ppm  CRGRO048 AZMC8901    2
 MODEL          : CRGRO048 - Cotton
 EXPERIMENT     : AZMC8901 CO 1989 FACE EXPERIMENT
 DATA PATH      :
 TREATMENT  2   : CO2 Enrichment - 550 ppm  CRGRO048
  


!SOIL INORGANIC N BALANCE                         Initial               Final
!                                                Year/Doy            Year/Doy
!                                                1989/100            1989/263
!                                               (kg[N]/ha)          (kg[N]/ha)
! Soil N state variables:
!   Soil NO3                                        31.44               63.03
!   Soil NH4                                         0.03                1.07
!   Soil Urea                                        0.00                0.00
!   Soil N gases                                     0.00                0.37
!   Unreleased fert N                                                    0.00

! N additions:
!   Fertilizer N                                   133.00
!   Mineralized N                                  102.32

! N subtractions:
!   N immobilized                                                        0.00
!   N leached                                                           23.59
!   N loss to tile drainage                                              0.00
!   N Uptake From Soil                                                 173.68
!   NH3 loss                                                             0.00
!   N2O loss                                                             1.19
!   N2 loss                                                              3.34
!   NO loss                                                              0.52

!   Total N balance                                266.79              266.79
!   Balance                                                            -0.000
