*Soil Organic Matter daily output file

*DSSAT Cropping System Model Ver. 4.8.2.006 -  APR 10, 2025 22:06:00

*RUN   1        : Control - 350 ppm         CRGRO048 AZMC8901    1
 MODEL          : CRGRO048 - Cotton
 EXPERIMENT     : AZMC8901 CO 1989 FACE EXPERIMENT
 DATA PATH      :
 TREATMENT  1   : Control - 350 ppm         CRGRO048
  
@YEAR DOY   DAS    OMAC    SCDD    SOCD    SC0D    SCTD   SOMCT    LCTD    ONAC    SNDD    SOND    SN0D    SNTD   SOMNT    LNTD
 1989 099     0       0    4005  118234       0  118234  118234     0.0    0.00   400.5 11823.4    0.00 11823.4 11823.4    0.00
 1989 100     1       0    4005  118229       0  118229  118229     0.0    0.00   400.5 11822.9    0.00 11822.9 11822.9    0.00
 1989 101     2       0    4005  118224       0  118224  118224     0.0    0.00   400.5 11822.4    0.00 11822.4 11822.4    0.00
 1989 102     3       0    4004  118219       0  118219  118219     0.0    0.00   400.4 11821.9    0.00 11821.9 11821.9    0.00
 1989 103     4       0    4004  118214       0  118214  118214     0.0    0.00   400.4 11821.4    0.00 11821.4 11821.4    0.00
 1989 104     5       0    4004  118209       0  118209  118209     0.0    0.00   400.4 11820.9    0.00 11820.9 11820.9    0.00
 1989 105     6       0    4004  118205       0  118205  118205     0.0    0.00   400.4 11820.5    0.00 11820.5 11820.5    0.00
 1989 106     7       0    4004  118200       0  118200  118200     0.0    0.00   400.4 11820.0    0.00 11820.0 11820.0    0.00
 1989 107     8       0    4003  118196       0  118196  118196     0.0    0.00   400.3 11819.6    0.00 11819.6 11819.6    0.00
 1989 108     9       0    4003  118191       0  118191  118191     0.0    0.00   400.3 11819.1    0.00 11819.1 11819.1    0.00
 1989 109    10       0    4003  118186       0  118186  118186     0.0    0.00   400.3 11818.6    0.00 11818.6 11818.6    0.00
 1989 110    11       0    4003  118182       0  118182  118182     0.0    0.00   400.3 11818.2    0.00 11818.2 11818.2    0.00
 1989 111    12       0    4003  118177       0  118177  118177     0.0    0.00   400.3 11817.7    0.00 11817.7 11817.7    0.00
 1989 112    13       0    4002  118172       0  118172  118172     0.0    0.00   400.2 11817.2    0.00 11817.2 11817.2    0.00
 1989 113    14       0    4002  118167       0  118167  118167     0.0    0.00   400.2 11816.7    0.00 11816.7 11816.7    0.00
 1989 114    15       0    4002  118162       0  118162  118162     0.0    0.00   400.2 11816.2    0.00 11816.2 11816.2    0.00
 1989 115    16       0    4002  118158       0  118158  118158     0.0    0.00   400.2 11815.8    0.00 11815.8 11815.8    0.00
 1989 116    17       0    4002  118153       0  118153  118153     0.0    0.00   400.2 11815.3    0.00 11815.3 11815.3    0.00
 1989 117    18       0    4001  118149       0  118149  118149     0.0    0.00   400.1 11814.9    0.00 11814.9 11814.9    0.00
 1989 118    19       0    4001  118146       0  118146  118146     0.0    0.00   400.1 11814.6    0.00 11814.6 11814.6    0.00
 1989 119    20       0    4001  118142       0  118142  118142     0.0    0.00   400.1 11814.2    0.00 11814.2 11814.2    0.00
 1989 120    21       0    4001  118139       0  118139  118139     0.0    0.00   400.1 11813.9    0.00 11813.9 11813.9    0.00
 1989 121    22       0    4001  118135       0  118135  118135     0.0    0.00   400.1 11813.5    0.00 11813.5 11813.5    0.00
 1989 122    23       0    4001  118132       0  118132  118132     0.0    0.00   400.1 11813.2    0.00 11813.2 11813.1    0.00
 1989 123    24       0    4001  118127       0  118127  118127     0.0    0.00   400.1 11812.7    0.00 11812.7 11812.7    0.00
 1989 124    25       0    4000  118123       0  118123  118123     0.0    0.00   400.0 11812.3    0.00 11812.3 11812.3    0.00
 1989 125    26       0    4000  118118       0  118118  118118     0.1    0.00   400.0 11811.8    0.00 11811.8 11811.8    0.00
 1989 126    27       0    4000  118113       0  118113  118113     0.1    0.00   400.0 11811.3    0.00 11811.3 11811.3    0.00
 1989 127    28       0    4000  118107       0  118107  118107     0.1    0.00   400.0 11810.7    0.00 11810.7 11810.7    0.00
 1989 128    29       0    4000  118102       0  118102  118102     0.1    0.00   400.0 11810.2    0.00 11810.2 11810.2    0.00
 1989 129    30       0    3999  118096       0  118096  118096     0.1    0.00   399.9 11809.6    0.00 11809.6 11809.6    0.00
 1989 130    31       0    3999  118091       0  118091  118090     0.1    0.00   399.9 11809.0    0.00 11809.0 11809.0    0.00
 1989 131    32       0    3999  118085       0  118085  118085     0.2    0.00   399.9 11808.5    0.00 11808.5 11808.5    0.00
 1989 132    33       0    3999  118080       0  118080  118080     0.2    0.00   399.9 11808.0    0.00 11808.0 11808.0    0.01
 1989 133    34       0    3998  118075       0  118075  118075     0.2    0.00   399.8 11807.5    0.00 11807.5 11807.5    0.01
 1989 134    35       0    3998  118071       0  118071  118070     0.2    0.00   399.8 11807.0    0.00 11807.0 11807.0    0.01
 1989 135    36       0    3998  118067       0  118067  118066     0.2    0.00   399.8 11806.6    0.00 11806.6 11806.6    0.01
 1989 136    37       0    3998  118063       0  118063  118063     0.3    0.00   399.8 11806.3    0.00 11806.3 11806.3    0.01
 1989 137    38       0    3998  118059       0  118059  118059     0.3    0.00   399.8 11805.9    0.00 11805.9 11805.9    0.01
 1989 138    39       0    3998  118055       0  118055  118055     0.3    0.00   399.8 11805.5    0.00 11805.5 11805.5    0.01
 1989 139    40       0    3998  118051       0  118051  118051     0.4    0.00   399.8 11805.1    0.00 11805.1 11805.1    0.01
 1989 140    41       0    3997  118047       0  118047  118046     0.4    0.00   399.7 11804.6    0.00 11804.6 11804.6    0.01
 1989 141    42       0    3997  118042       0  118042  118041     0.5    0.00   399.7 11804.2    0.00 11804.2 11804.1    0.02
 1989 142    43       0    3997  118037       0  118037  118036     0.6    0.00   399.7 11803.7    0.00 11803.7 11803.6    0.02
 1989 143    44       0    3997  118032       0  118032  118031     0.7    0.00   399.7 11803.1    0.00 11803.1 11803.1    0.02
 1989 144    45       0    3997  118026       0  118026  118025     0.8    0.00   399.7 11802.6    0.00 11802.6 11802.5    0.02
 1989 145    46       0    3996  118021       0  118021  118020     0.9    0.00   399.6 11802.0    0.00 11802.0 11802.0    0.03
 1989 146    47       0    3996  118015       0  118015  118014     1.0    0.00   399.6 11801.4    0.00 11801.4 11801.4    0.03
 1989 147    48       0    3996  118010       0  118010  118009     1.1    0.00   399.6 11800.9    0.00 11800.9 11800.9    0.04
 1989 148    49       0    3996  118004       0  118004  118003     1.3    0.00   399.6 11800.4    0.00 11800.4 11800.3    0.04
 1989 149    50       0    3996  117999       0  117999  117998     1.5    0.00   399.6 11799.8    0.00 11799.8 11799.8    0.05
 1989 150    51       0    3995  117994       0  117994  117992     1.6    0.00   399.5 11799.3    0.00 11799.3 11799.2    0.05
 1989 151    52       0    3995  117989       0  117989  117987     1.8    0.00   399.5 11798.7    0.00 11798.7 11798.7    0.06
 1989 152    53       0    3995  117984       0  117984  117982     2.0    0.00   399.5 11798.2    0.00 11798.2 11798.2    0.06
 1989 153    54       0    3995  117979       0  117979  117977     2.2    0.00   399.5 11797.7    0.00 11797.7 11797.7    0.07
 1989 154    55       0    3995  117974       0  117974  117971     2.4    0.00   399.5 11797.2    0.00 11797.2 11797.1    0.08
 1989 155    56       0    3994  117969       0  117969  117966     2.7    0.00   399.4 11796.7    0.00 11796.7 11796.7    0.09
 1989 156    57       0    3994  117964       0  117964  117961     2.9    0.00   399.4 11796.2    0.00 11796.2 11796.1    0.09
 1989 157    58       0    3994  117959       0  117959  117956     3.2    0.00   399.4 11795.7    0.00 11795.7 11795.6    0.10
 1989 158    59       0    3994  117954       0  117954  117950     3.6    0.00   399.4 11795.2    0.00 11795.2 11795.0    0.11
 1989 159    60       0    3994  117949       0  117949  117945     3.9    0.00   399.4 11794.6    0.00 11794.6 11794.5    0.13
 1989 160    61       0    3993  117944       0  117944  117939     4.3    0.00   399.3 11794.1    0.00 11794.1 11793.9    0.14
 1989 161    62       0    3993  117938       0  117938  117934     4.7    0.00   399.3 11793.5    0.00 11793.5 11793.4    0.15
 1989 162    63       0    3993  117933       0  117933  117928     5.2    0.00   399.3 11793.0    0.00 11793.0 11792.8    0.17
 1989 163    64       0    3993  117928       0  117928  117922     5.7    0.00   399.3 11792.4    0.00 11792.4 11792.2    0.18
 1989 164    65       0    3993  117923       0  117923  117917     6.2    0.00   399.3 11791.9    0.00 11791.9 11791.7    0.20
 1989 165    66       0    3992  117917       0  117917  117911     6.8    0.00   399.2 11791.3    0.00 11791.3 11791.1    0.22
 1989 166    67       0    3992  117912       0  117912  117904     7.5    0.00   399.2 11790.7    0.00 11790.7 11790.4    0.24
 1989 167    68       0    3992  117906       0  117906  117898     8.0    0.00   399.2 11790.1    0.00 11790.1 11789.8    0.26
 1989 168    69       0    3992  117900       0  117900  117892     8.6    0.00   399.2 11789.4    0.00 11789.4 11789.2    0.28
 1989 169    70       0    3991  117894       0  117894  117885     9.1    0.00   399.1 11788.8    0.00 11788.8 11788.5    0.30
 1989 170    71       0    3991  117888       0  117888  117878     9.7    0.00   399.1 11788.1    0.00 11788.1 11787.8    0.32
 1989 171    72       0    3991  117882       0  117882  117872    10.4    0.00   399.1 11787.5    0.00 11787.5 11787.1    0.35
 1989 172    73       0    3991  117876       0  117876  117865    11.1    0.00   399.1 11786.9    0.00 11786.9 11786.5    0.37
 1989 173    74       0    3991  117871       1  117870  117858    11.9    0.00   399.1 11786.2    0.02 11786.2 11785.8    0.40
 1989 174    75       0    3990  117866       1  117865  117852    12.7    0.00   399.0 11785.6    0.04 11785.6 11785.2    0.43
 1989 175    76       0    3990  117861       2  117859  117846    13.6    0.00   399.0 11785.1    0.06 11785.0 11784.5    0.46
 1989 176    77       0    3990  117856       2  117854  117839    14.6    0.00   399.0 11784.5    0.09 11784.4 11783.9    0.49
 1989 177    78       0    3990  117852       3  117849  117834    15.5    0.00   399.0 11784.0    0.11 11783.9 11783.3    0.53
 1989 178    79       0    3990  117848       4  117844  117828    16.4    0.00   399.0 11783.5    0.14 11783.3 11782.8    0.56
 1989 179    80       0    3990  117844       5  117839  117822    17.3    0.00   399.0 11782.9    0.17 11782.8 11782.2    0.59
 1989 180    81       0    3989  117840       6  117834  117816    18.3    0.00   398.9 11782.4    0.20 11782.2 11781.5    0.63
 1989 181    82       0    3989  117835       7  117828  117809    19.2    0.00   398.9 11781.8    0.24 11781.6 11780.9    0.66
 1989 182    83       0    3989  117831       8  117823  117803    20.0    0.00   398.9 11781.2    0.28 11780.9 11780.2    0.70
 1989 183    84       0    3989  117826       9  117817  117796    21.0    0.00   398.8 11780.6    0.32 11780.3 11779.6    0.74
 1989 184    85       0    3988  117822      10  117812  117790    22.0    0.00   398.8 11780.0    0.37 11779.7 11778.9    0.77
 1989 185    86       0    3988  117817      11  117806  117783    22.9    0.00   398.8 11779.5    0.42 11779.0 11778.2    0.81
 1989 186    87       0    3988  117813      13  117800  117776    23.7    0.00   398.8 11778.8    0.46 11778.4 11777.5    0.84
 1989 187    88       0    3988  117809      15  117794  117769    24.6    0.00   398.7 11778.3    0.56 11777.7 11776.8    0.88
 1989 188    89       0    3987  117805      17  117788  117762    25.6    0.00   398.7 11777.7    0.63 11777.1 11776.1    0.93
 1989 189    90       0    3987  117802      20  117782  117755    26.7    0.00   398.7 11777.1    0.72 11776.4 11775.4    0.97
 1989 190    91       0    3987  117798      22  117776  117748    27.8    0.00   398.7 11776.5    0.82 11775.7 11774.7    1.01
 1989 191    92       0    3987  117797      27  117770  117741    29.1    0.00   398.6 11776.0    1.03 11775.0 11773.9    1.06
 1989 192    93       0    3986  117798      33  117764  117734    30.6    0.00   398.6 11775.7    1.36 11774.3 11773.2    1.11
 1989 193    94       0    3986  117798      39  117759  117727    31.9    0.00   398.6 11775.3    1.65 11773.7 11772.5    1.16
 1989 194    95       0    3986  117799      46  117753  117720    33.0    0.00   398.5 11775.0    1.98 11773.0 11771.8    1.20
 1989 195    96       0    3986  117799      52  117748  117714    34.1    0.00   398.5 11774.7    2.28 11772.4 11771.2    1.24
 1989 196    97       0    3985  117800      58  117743  117707    35.5    0.00   398.5 11774.4    2.59 11771.8 11770.5    1.29
 1989 197    98       0    3985  117804      66  117737  117700    37.0    0.00   398.5 11774.2    3.04 11771.1 11769.8    1.34
 1989 198    99       0    3985  117807      75  117732  117693    38.4    0.00   398.4 11774.0    3.50 11770.5 11769.1    1.39
 1989 199   100       0    3985  117810      84  117726  117686    39.6    0.00   398.4 11773.8    3.96 11769.8 11768.4    1.43
 1989 200   101       0    3984  117815      95  117720  117679    40.8    0.00   398.4 11773.6    4.54 11769.1 11767.6    1.48
 1989 201   102       0    3984  117815     102  117714  117672    42.0    0.00   398.4 11773.4    4.95 11768.4 11766.9    1.53
 1989 202   103       0    3984  117818     110  117708  117664    43.3    0.00   398.3 11773.2    5.48 11767.7 11766.1    1.58
 1989 203   104       0    3984  117826     125  117701  117657    44.4    0.00   398.3 11773.3    6.30 11767.0 11765.3    1.63
 1989 204   105       0    3983  117832     137  117695  117650    45.5    0.00   398.3 11773.2    6.88 11766.3 11764.6    1.68
 1989 205   106       0    3983  117835     146  117689  117642    46.7    0.00   398.2 11772.9    7.35 11765.6 11763.8    1.73
 1989 206   107       0    3983  117839     156  117683  117635    48.0    0.00   398.2 11772.7    7.81 11764.9 11763.1    1.78
 1989 207   108       0    3983  117844     166  117678  117628    49.6    0.00   398.2 11772.5    8.32 11764.2 11762.4    1.84
 1989 208   109       0    3983  117849     177  117672  117621    51.3    0.00   398.2 11772.4    8.84 11763.5 11761.7    1.90
 1989 209   110       0    3982  117854     188  117666  117614    52.5    0.00   398.2 11772.2    9.37 11762.9 11760.9    1.94
 1989 210   111       0    3982  117857     197  117661  117607    53.7    0.00   398.1 11772.0    9.78 11762.2 11760.2    1.98
 1989 211   112       0    3982  117858     203  117655  117600    55.0    0.00   398.1 11771.6   10.06 11761.5 11759.5    2.03
 1989 212   113       0    3982  117863     214  117649  117593    56.1    0.00   398.1 11771.4   10.56 11760.8 11758.8    2.07
 1989 213   114       0    3981  117885     241  117644  117586    57.4    0.00   398.1 11772.2   12.02 11760.2 11758.1    2.11
 1989 214   115       0    3981  117884     246  117638  117579    58.3    0.00   398.0 11771.7   12.19 11759.5 11757.4    2.14
 1989 215   116       0    3981  117897     266  117632  117572    59.1    0.00   398.0 11772.0   13.21 11758.8 11756.6    2.17
 1989 216   117       0    3981  117905     280  117625  117565    60.1    0.00   398.0 11772.0   13.87 11758.1 11755.9    2.20
 1989 217   118       0    3981  117911     291  117619  117558    61.3    0.00   397.9 11771.8   14.42 11757.4 11755.2    2.24
 1989 218   119       0    3980  117927     313  117613  117551    62.2    0.00   397.9 11772.2   15.51 11756.7 11754.4    2.27
 1989 219   120       0    3980  117937     330  117607  117544    63.2    0.00   397.9 11772.3   16.29 11756.0 11753.7    2.30
 1989 220   121       0    3980  117942     341  117601  117537    64.0    0.00   397.9 11772.1   16.79 11755.3 11753.0    2.32
 1989 221   122       0    3980  117942     347  117595  117530    64.8    0.00   397.8 11771.6   17.05 11754.6 11752.2    2.35
 1989 222   123       0    3979  117941     353  117588  117523    65.5    0.00   397.8 11771.1   17.29 11753.9 11751.5    2.37
 1989 223   124       0    3979  117943     361  117582  117516    66.2    0.00   397.8 11770.8   17.61 11753.1 11750.8    2.39
 1989 224   125       0    3979  117947     371  117575  117509    66.7    0.00   397.8 11770.5   18.06 11752.4 11750.0    2.40
 1989 225   126       0    3979  117951     382  117569  117502    67.5    0.00   397.7 11770.2   18.50 11751.7 11749.3    2.43
 1989 226   127       0    3979  117950     388  117563  117495    67.9    0.00   397.7 11769.8   18.75 11751.0 11748.6    2.44
 1989 227   128       0    3978  117947     391  117556  117487    68.4    0.00   397.7 11769.1   18.87 11750.3 11747.8    2.45
 1989 228   129       0    3978  117945     396  117549  117480    68.6    0.00   397.7 11768.6   19.08 11749.5 11747.0    2.46
 1989 229   130       0    3978  117944     403  117541  117472    69.0    0.00   397.6 11768.1   19.33 11748.7 11746.2    2.48
 1989 230   131       0    3978  117940     406  117534  117465    69.3    0.00   397.6 11767.4   19.46 11747.9 11745.5    2.48
 1989 231   132       0    3977  117936     409  117527  117458    69.8    0.00   397.6 11766.7   19.55 11747.2 11744.7    2.50
 1989 232   133       0    3977  117932     411  117520  117450    70.0    0.00   397.6 11766.1   19.64 11746.4 11743.9    2.51
 1989 233   134       0    3977  117927     414  117514  117443    70.5    0.00   397.5 11765.5   19.73 11745.7 11743.2    2.52
 1989 234   135       0    3977  117923     416  117507  117436    70.9    0.00   397.5 11764.8   19.82 11745.0 11742.5    2.53
 1989 235   136       0    3977  117918     418  117500  117429    71.0    0.00   397.5 11764.2   19.89 11744.3 11741.8    2.53
 1989 236   137       0    3976  117913     420  117494  117423    71.1    0.00   397.5 11763.6   19.95 11743.6 11741.1    2.53
 1989 237   138       0    3976  117909     422  117487  117416    71.1    0.00   397.4 11762.9   20.02 11742.9 11740.4    2.54
 1989 238   139       0    3976  117904     423  117481  117410    71.5    0.00   397.4 11762.3   20.08 11742.3 11739.7    2.55
 1989 239   140       0    3976  117900     425  117475  117403    71.8    0.00   397.4 11761.7   20.14 11741.6 11739.0    2.55
 1989 240   141       0    3976  117896     427  117469  117397    72.4    0.00   397.4 11761.1   20.20 11740.9 11738.4    2.57
 1989 241   142       0    3976  117891     428  117463  117390    73.1    0.00   397.4 11760.5   20.25 11740.3 11737.7    2.58
 1989 242   143       0    3975  117887     429  117458  117384    73.9    0.00   397.3 11759.9   20.30 11739.6 11737.0    2.60
 1989 243   144       0    3975  117883     431  117452  117377    74.9    0.00   397.3 11759.3   20.35 11739.0 11736.4    2.62
 1989 244   145       0    3975  117880     433  117447  117370    76.2    0.00   397.3 11758.7   20.42 11738.3 11735.7    2.65
 1989 245   146       0    3975  117875     434  117441  117364    77.3    0.00   397.3 11758.1   20.47 11737.6 11735.0    2.68
 1989 246   147       0    3975  117871     435  117436  117357    78.7    0.00   397.3 11757.5   20.52 11737.0 11734.3    2.71
 1989 247   148       0    3975  117866     436  117430  117350    79.4    0.00   397.3 11756.9   20.55 11736.3 11733.6    2.73
 1989 248   149       0    3975  117861     438  117424  117344    80.2    0.00   397.2 11756.3   20.59 11735.7 11732.9    2.75
 1989 249   150       0    3975  117857     439  117418  117337    81.2    0.00   397.2 11755.6   20.63 11735.0 11732.2    2.77
 1989 250   151       0    3974  117853     440  117413  117331    82.5    0.00   397.2 11755.0   20.67 11734.4 11731.6    2.80
 1989 251   152       0    3974  117848     440  117408  117324    83.7    0.00   397.2 11754.4   20.70 11733.7 11730.9    2.83
 1989 252   153       0    3974  117845     442  117403  117318    85.2    0.00   397.2 11753.9   20.74 11733.1 11730.2    2.87
 1989 253   154       0    3974  117840     443  117397  117311    86.1    0.00   397.2 11753.3   20.77 11732.5 11729.6    2.89
 1989 254   155       0    3974  117836     443  117392  117305    87.2    0.00   397.2 11752.7   20.79 11731.9 11729.0    2.92
 1989 255   156       0    3974  117838     450  117388  117299    88.7    0.00   397.2 11752.4   21.05 11731.3 11728.4    2.95
 1989 256   157       0    3974  117841     457  117384  117294    90.3    0.00   397.2 11752.1   21.30 11730.8 11727.8    2.98
 1989 257   158       0    3974  117844     464  117380  117288    91.9    0.00   397.1 11751.8   21.54 11730.3 11727.2    3.02
 1989 258   159       0    3974  117847     470  117376  117283    93.6    0.00   397.1 11751.5   21.78 11729.8 11726.7    3.06
 1989 259   160       0    3974  117849     477  117373  117277    95.5    0.00   397.1 11751.3   22.01 11729.2 11726.1    3.10
 1989 260   161       0    3974  117853     483  117370  117272    97.9    0.00   397.1 11751.0   22.25 11728.8 11725.6    3.16
 1989 261   162       0    3974  117856     489  117367  117266   100.5    0.00   397.1 11750.7   22.47 11728.3 11725.0    3.22
 1989 262   163       0    3973  117859     495  117364  117261   103.0    0.00   397.1 11750.5   22.70 11727.8 11724.5    3.28
 1989 263   164       0    3973  117862     501  117361  117256   105.5    0.00   397.1 11750.2   22.92 11727.3 11723.9    3.33

*DSSAT Cropping System Model Ver. 4.8.2.006 -  APR 10, 2025 22:06:01

*RUN   2        : CO2 Enrichment - 550 ppm  CRGRO048 AZMC8901    2
 MODEL          : CRGRO048 - Cotton
 EXPERIMENT     : AZMC8901 CO 1989 FACE EXPERIMENT
 DATA PATH      :
 TREATMENT  2   : CO2 Enrichment - 550 ppm  CRGRO048
  
@YEAR DOY   DAS    OMAC    SCDD    SOCD    SC0D    SCTD   SOMCT    LCTD    ONAC    SNDD    SOND    SN0D    SNTD   SOMNT    LNTD
 1989 099     0       0    4005  118234       0  118234  118234     0.0    0.00   400.5 11823.4    0.00 11823.4 11823.4    0.00
 1989 100     1       0    4005  118229       0  118229  118229     0.0    0.00   400.5 11822.9    0.00 11822.9 11822.9    0.00
 1989 101     2       0    4005  118224       0  118224  118224     0.0    0.00   400.5 11822.4    0.00 11822.4 11822.4    0.00
 1989 102     3       0    4004  118219       0  118219  118219     0.0    0.00   400.4 11821.9    0.00 11821.9 11821.9    0.00
 1989 103     4       0    4004  118214       0  118214  118214     0.0    0.00   400.4 11821.4    0.00 11821.4 11821.4    0.00
 1989 104     5       0    4004  118209       0  118209  118209     0.0    0.00   400.4 11820.9    0.00 11820.9 11820.9    0.00
 1989 105     6       0    4004  118205       0  118205  118205     0.0    0.00   400.4 11820.5    0.00 11820.5 11820.5    0.00
 1989 106     7       0    4004  118200       0  118200  118200     0.0    0.00   400.4 11820.0    0.00 11820.0 11820.0    0.00
 1989 107     8       0    4003  118196       0  118196  118196     0.0    0.00   400.3 11819.6    0.00 11819.6 11819.6    0.00
 1989 108     9       0    4003  118191       0  118191  118191     0.0    0.00   400.3 11819.1    0.00 11819.1 11819.1    0.00
 1989 109    10       0    4003  118186       0  118186  118186     0.0    0.00   400.3 11818.6    0.00 11818.6 11818.6    0.00
 1989 110    11       0    4003  118182       0  118182  118182     0.0    0.00   400.3 11818.2    0.00 11818.2 11818.2    0.00
 1989 111    12       0    4003  118177       0  118177  118177     0.0    0.00   400.3 11817.7    0.00 11817.7 11817.7    0.00
 1989 112    13       0    4002  118172       0  118172  118172     0.0    0.00   400.2 11817.2    0.00 11817.2 11817.2    0.00
 1989 113    14       0    4002  118167       0  118167  118167     0.0    0.00   400.2 11816.7    0.00 11816.7 11816.7    0.00
 1989 114    15       0    4002  118162       0  118162  118162     0.0    0.00   400.2 11816.2    0.00 11816.2 11816.2    0.00
 1989 115    16       0    4002  118158       0  118158  118158     0.0    0.00   400.2 11815.8    0.00 11815.8 11815.8    0.00
 1989 116    17       0    4002  118153       0  118153  118153     0.0    0.00   400.2 11815.3    0.00 11815.3 11815.3    0.00
 1989 117    18       0    4001  118149       0  118149  118149     0.0    0.00   400.1 11814.9    0.00 11814.9 11814.9    0.00
 1989 118    19       0    4001  118146       0  118146  118146     0.0    0.00   400.1 11814.6    0.00 11814.6 11814.6    0.00
 1989 119    20       0    4001  118142       0  118142  118142     0.0    0.00   400.1 11814.2    0.00 11814.2 11814.2    0.00
 1989 120    21       0    4001  118139       0  118139  118139     0.0    0.00   400.1 11813.9    0.00 11813.9 11813.9    0.00
 1989 121    22       0    4001  118135       0  118135  118135     0.0    0.00   400.1 11813.5    0.00 11813.5 11813.5    0.00
 1989 122    23       0    4001  118132       0  118132  118132     0.0    0.00   400.1 11813.2    0.00 11813.2 11813.1    0.00
 1989 123    24       0    4001  118127       0  118127  118127     0.0    0.00   400.1 11812.7    0.00 11812.7 11812.7    0.00
 1989 124    25       0    4000  118123       0  118123  118123     0.0    0.00   400.0 11812.3    0.00 11812.3 11812.3    0.00
 1989 125    26       0    4000  118118       0  118118  118118     0.1    0.00   400.0 11811.8    0.00 11811.8 11811.8    0.00
 1989 126    27       0    4000  118113       0  118113  118113     0.1    0.00   400.0 11811.3    0.00 11811.3 11811.3    0.00
 1989 127    28       0    4000  118107       0  118107  118107     0.1    0.00   400.0 11810.7    0.00 11810.7 11810.7    0.00
 1989 128    29       0    4000  118102       0  118102  118102     0.1    0.00   400.0 11810.2    0.00 11810.2 11810.2    0.00
 1989 129    30       0    3999  118096       0  118096  118096     0.1    0.00   399.9 11809.6    0.00 11809.6 11809.6    0.00
 1989 130    31       0    3999  118091       0  118091  118090     0.1    0.00   399.9 11809.0    0.00 11809.0 11809.0    0.00
 1989 131    32       0    3999  118085       0  118085  118085     0.2    0.00   399.9 11808.5    0.00 11808.5 11808.5    0.00
 1989 132    33       0    3999  118080       0  118080  118080     0.2    0.00   399.9 11808.0    0.00 11808.0 11808.0    0.01
 1989 133    34       0    3998  118075       0  118075  118075     0.2    0.00   399.8 11807.5    0.00 11807.5 11807.5    0.01
 1989 134    35       0    3998  118071       0  118071  118070     0.2    0.00   399.8 11807.0    0.00 11807.0 11807.0    0.01
 1989 135    36       0    3998  118067       0  118067  118066     0.2    0.00   399.8 11806.6    0.00 11806.6 11806.6    0.01
 1989 136    37       0    3998  118063       0  118063  118063     0.3    0.00   399.8 11806.3    0.00 11806.3 11806.3    0.01
 1989 137    38       0    3998  118059       0  118059  118059     0.3    0.00   399.8 11805.9    0.00 11805.9 11805.9    0.01
 1989 138    39       0    3998  118055       0  118055  118055     0.3    0.00   399.8 11805.5    0.00 11805.5 11805.5    0.01
 1989 139    40       0    3998  118051       0  118051  118051     0.4    0.00   399.8 11805.1    0.00 11805.1 11805.1    0.01
 1989 140    41       0    3997  118047       0  118047  118046     0.4    0.00   399.7 11804.6    0.00 11804.6 11804.6    0.01
 1989 141    42       0    3997  118042       0  118042  118041     0.5    0.00   399.7 11804.2    0.00 11804.2 11804.1    0.02
 1989 142    43       0    3997  118037       0  118037  118036     0.6    0.00   399.7 11803.7    0.00 11803.7 11803.6    0.02
 1989 143    44       0    3997  118032       0  118032  118031     0.7    0.00   399.7 11803.1    0.00 11803.1 11803.1    0.02
 1989 144    45       0    3997  118026       0  118026  118025     0.8    0.00   399.7 11802.6    0.00 11802.6 11802.5    0.03
 1989 145    46       0    3996  118021       0  118021  118020     1.0    0.00   399.6 11802.0    0.00 11802.0 11802.0    0.03
 1989 146    47       0    3996  118015       0  118015  118014     1.1    0.00   399.6 11801.5    0.00 11801.5 11801.4    0.04
 1989 147    48       0    3996  118010       0  118010  118009     1.2    0.00   399.6 11800.9    0.00 11800.9 11800.9    0.04
 1989 148    49       0    3996  118005       0  118005  118003     1.4    0.00   399.6 11800.4    0.00 11800.4 11800.3    0.05
 1989 149    50       0    3996  117999       0  117999  117998     1.6    0.00   399.6 11799.8    0.00 11799.8 11799.8    0.05
 1989 150    51       0    3995  117994       0  117994  117992     1.9    0.00   399.5 11799.3    0.00 11799.3 11799.2    0.06
 1989 151    52       0    3995  117989       0  117989  117987     2.1    0.00   399.5 11798.8    0.00 11798.8 11798.7    0.07
 1989 152    53       0    3995  117984       0  117984  117982     2.3    0.00   399.5 11798.2    0.00 11798.2 11798.2    0.07
 1989 153    54       0    3995  117979       0  117979  117977     2.5    0.00   399.5 11797.7    0.00 11797.7 11797.7    0.08
 1989 154    55       0    3995  117974       0  117974  117971     2.8    0.00   399.5 11797.2    0.00 11797.2 11797.1    0.09
 1989 155    56       0    3994  117970       0  117970  117966     3.1    0.00   399.4 11796.8    0.00 11796.8 11796.7    0.10
 1989 156    57       0    3994  117965       0  117965  117961     3.4    0.00   399.4 11796.2    0.00 11796.2 11796.1    0.11
 1989 157    58       0    3994  117960       0  117960  117956     3.8    0.00   399.4 11795.7    0.00 11795.7 11795.6    0.12
 1989 158    59       0    3994  117955       0  117955  117950     4.2    0.00   399.4 11795.2    0.00 11795.2 11795.0    0.14
 1989 159    60       0    3994  117950       0  117950  117945     4.7    0.00   399.4 11794.6    0.00 11794.6 11794.5    0.15
 1989 160    61       0    3993  117945       0  117944  117939     5.2    0.00   399.3 11794.1    0.00 11794.1 11793.9    0.17
 1989 161    62       0    3993  117939       0  117939  117934     5.8    0.00   399.3 11793.6    0.00 11793.6 11793.4    0.19
 1989 162    63       0    3993  117934       0  117934  117928     6.4    0.00   399.3 11793.0    0.00 11793.0 11792.8    0.21
 1989 163    64       0    3993  117929       0  117929  117922     7.0    0.00   399.3 11792.5    0.00 11792.5 11792.2    0.23
 1989 164    65       0    3993  117924       0  117924  117917     7.6    0.00   399.3 11791.9    0.00 11791.9 11791.7    0.25
 1989 165    66       0    3992  117919       0  117919  117911     8.3    0.00   399.2 11791.3    0.00 11791.3 11791.1    0.27
 1989 166    67       0    3992  117913       0  117913  117904     8.9    0.00   399.2 11790.7    0.00 11790.7 11790.4    0.30
 1989 167    68       0    3992  117908       0  117908  117898     9.6    0.00   399.2 11790.1    0.00 11790.1 11789.8    0.32
 1989 168    69       0    3992  117902       0  117902  117892    10.3    0.00   399.2 11789.5    0.00 11789.5 11789.2    0.35
 1989 169    70       0    3991  117896       0  117896  117885    11.1    0.00   399.1 11788.9    0.00 11788.9 11788.5    0.37
 1989 170    71       0    3991  117890       0  117890  117878    12.0    0.00   399.1 11788.2    0.00 11788.2 11787.8    0.40
 1989 171    72       0    3991  117885       0  117885  117872    13.0    0.00   399.1 11787.6    0.00 11787.6 11787.2    0.44
 1989 172    73       0    3991  117879       0  117879  117865    14.0    0.00   399.1 11787.0    0.00 11787.0 11786.5    0.47
 1989 173    74       0    3991  117875       1  117874  117859    15.2    0.00   399.1 11786.4    0.03 11786.4 11785.8    0.51
 1989 174    75       0    3990  117870       1  117869  117852    16.2    0.00   399.0 11785.8    0.05 11785.8 11785.2    0.55
 1989 175    76       0    3990  117866       2  117863  117846    17.3    0.00   399.0 11785.3    0.08 11785.2 11784.6    0.59
 1989 176    77       0    3990  117862       3  117859  117840    18.6    0.00   399.0 11784.7    0.12 11784.6 11784.0    0.63
 1989 177    78       0    3990  117859       4  117854  117834    19.9    0.00   399.0 11784.2    0.15 11784.1 11783.4    0.68
 1989 178    79       0    3990  117856       5  117850  117829    21.2    0.00   399.0 11783.8    0.20 11783.6 11782.9    0.73
 1989 179    80       0    3990  117852       6  117846  117823    22.5    0.00   399.0 11783.3    0.21 11783.1 11782.3    0.77
 1989 180    81       0    3990  117850       9  117841  117817    24.0    0.00   398.9 11782.8    0.31 11782.5 11781.7    0.83
 1989 181    82       0    3989  117847      11  117836  117811    25.4    0.00   398.9 11782.3    0.40 11781.9 11781.0    0.88
 1989 182    83       0    3989  117844      13  117831  117805    26.6    0.00   398.9 11781.8    0.48 11781.3 11780.4    0.93
 1989 183    84       0    3989  117842      16  117826  117798    27.9    0.00   398.9 11781.3    0.62 11780.7 11779.7    0.98
 1989 184    85       0    3989  117839      18  117821  117792    29.1    0.00   398.8 11780.8    0.70 11780.1 11779.1    1.03
 1989 185    86       0    3988  117836      20  117816  117785    30.3    0.00   398.8 11780.3    0.78 11779.5 11778.4    1.07
 1989 186    87       0    3988  117833      23  117810  117779    31.4    0.00   398.8 11779.7    0.86 11778.9 11777.7    1.12
 1989 187    88       0    3988  117830      25  117805  117772    32.7    0.00   398.8 11779.2    0.95 11778.2 11777.1    1.17
 1989 188    89       0    3988  117827      28  117800  117765    34.3    0.00   398.7 11778.6    1.05 11777.6 11776.4    1.23
 1989 189    90       0    3987  117824      30  117794  117758    35.8    0.00   398.7 11778.1    1.14 11776.9 11775.7    1.28
 1989 190    91       0    3987  117821      33  117789  117751    37.3    0.00   398.7 11777.5    1.24 11776.3 11774.9    1.34
 1989 191    92       0    3987  117821      38  117784  117744    39.1    0.00   398.6 11777.1    1.49 11775.6 11774.2    1.41
 1989 192    93       0    3987  117825      46  117779  117738    41.2    0.00   398.6 11776.9    1.92 11775.0 11773.5    1.48
 1989 193    94       0    3986  117827      53  117774  117731    43.0    0.00   398.6 11776.7    2.29 11774.4 11772.9    1.54
 1989 194    95       0    3986  117830      61  117769  117724    44.6    0.00   398.6 11776.5    2.71 11773.8 11772.2    1.59
 1989 195    96       0    3986  117833      69  117764  117718    46.1    0.00   398.5 11776.3    3.09 11773.2 11771.5    1.65
 1989 196    97       0    3986  117836      77  117760  117712    47.8    0.00   398.5 11776.1    3.49 11772.6 11770.9    1.71
 1989 197    98       0    3985  117843      88  117755  117705    49.7    0.00   398.5 11776.0    4.06 11772.0 11770.2    1.77
 1989 198    99       0    3985  117849      99  117750  117699    51.4    0.00   398.5 11776.0    4.62 11771.3 11769.5    1.83
 1989 199   100       0    3985  117854     110  117744  117692    52.8    0.00   398.4 11775.9    5.20 11770.7 11768.8    1.88
 1989 200   101       0    3985  117863     124  117739  117685    54.1    0.00   398.4 11776.0    5.94 11770.0 11768.1    1.93
 1989 201   102       0    3984  117867     134  117733  117678    55.5    0.00   398.4 11775.9    6.53 11769.3 11767.3    1.99
 1989 202   103       0    3984  117877     150  117727  117670    57.1    0.00   398.3 11776.0    7.41 11768.6 11766.6    2.06
 1989 203   104       0    3984  117892     171  117721  117663    58.4    0.00   398.3 11776.4    8.51 11767.9 11765.8    2.11
 1989 204   105       0    3984  117901     186  117715  117656    59.7    0.00   398.3 11776.5    9.28 11767.2 11765.1    2.17
 1989 205   106       0    3984  117908     198  117709  117648    61.0    0.00   398.3 11776.4    9.88 11766.5 11764.3    2.22
 1989 206   107       0    3983  117915     211  117704  117641    62.5    0.00   398.2 11776.3   10.49 11765.8 11763.6    2.27
 1989 207   108       0    3983  117924     225  117699  117634    64.2    0.00   398.2 11776.4   11.18 11765.2 11762.9    2.34
 1989 208   109       0    3983  117933     239  117694  117627    66.3    0.00   398.2 11776.4   11.86 11764.5 11762.1    2.40
 1989 209   110       0    3983  117941     253  117688  117620    67.5    0.00   398.2 11776.4   12.56 11763.9 11761.4    2.45
 1989 210   111       0    3983  117947     265  117682  117613    68.8    0.00   398.1 11776.3   13.09 11763.2 11760.7    2.49
 1989 211   112       0    3982  117949     272  117677  117607    70.3    0.00   398.1 11775.9   13.39 11762.5 11760.0    2.54
 1989 212   113       0    3982  117955     284  117671  117600    71.4    0.00   398.1 11775.8   13.95 11761.9 11759.3    2.58
 1989 213   114       0    3982  117985     319  117666  117593    72.9    0.00   398.1 11776.9   15.70 11761.2 11758.6    2.62
 1989 214   115       0    3982  117983     323  117660  117586    73.8    0.00   398.0 11776.4   15.85 11760.5 11757.9    2.66
 1989 215   116       0    3982  117998     344  117654  117579    74.6    0.00   398.0 11776.7   16.85 11759.8 11757.1    2.68
 1989 216   117       0    3981  118008     359  117648  117572    75.6    0.00   398.0 11776.7   17.55 11759.1 11756.4    2.72
 1989 217   118       0    3981  118015     372  117642  117565    76.9    0.00   398.0 11776.5   18.12 11758.4 11755.7    2.75
 1989 218   119       0    3981  118028     392  117636  117559    77.7    0.00   397.9 11776.7   19.00 11757.7 11755.0    2.78
 1989 219   120       0    3981  118037     406  117630  117552    78.6    0.00   397.9 11776.7   19.64 11757.0 11754.2    2.81
 1989 220   121       0    3981  118034     410  117624  117545    79.4    0.00   397.9 11776.1   19.77 11756.3 11753.5    2.83
 1989 221   122       0    3980  118032     414  117618  117538    80.1    0.00   397.9 11775.6   19.94 11755.6 11752.8    2.86
 1989 222   123       0    3980  118030     419  117611  117531    80.7    0.00   397.8 11775.0   20.10 11754.9 11752.0    2.87
 1989 223   124       0    3980  118029     424  117605  117524    81.3    0.00   397.8 11774.5   20.32 11754.2 11751.3    2.89
 1989 224   125       0    3980  118028     430  117599  117517    81.7    0.00   397.8 11774.0   20.54 11753.5 11750.6    2.91
 1989 225   126       0    3980  118029     437  117592  117510    82.3    0.00   397.8 11773.6   20.79 11752.8 11749.8    2.93
 1989 226   127       0    3979  118027     442  117586  117503    82.6    0.00   397.7 11773.0   20.97 11752.0 11749.1    2.94
 1989 227   128       0    3979  118023     444  117579  117496    83.0    0.00   397.7 11772.4   21.06 11751.3 11748.4    2.95
 1989 228   129       0    3979  118018     446  117571  117488    83.0    0.00   397.7 11771.7   21.14 11750.5 11747.6    2.95
 1989 229   130       0    3979  118013     448  117564  117481    83.2    0.00   397.7 11771.0   21.22 11749.8 11746.8    2.96
 1989 230   131       0    3978  118007     450  117557  117474    83.3    0.00   397.6 11770.3   21.29 11749.0 11746.0    2.97
 1989 231   132       0    3978  118002     452  117550  117466    83.8    0.00   397.6 11769.6   21.36 11748.2 11745.3    2.98
 1989 232   133       0    3978  117997     454  117543  117459    83.9    0.00   397.6 11768.9   21.42 11747.5 11744.5    2.98
 1989 233   134       0    3978  117992     456  117537  117452    84.4    0.00   397.6 11768.2   21.48 11746.8 11743.8    2.99
 1989 234   135       0    3978  117987     457  117530  117445    84.5    0.00   397.5 11767.6   21.53 11746.0 11743.0    3.00
 1989 235   136       0    3977  117981     458  117523  117438    84.7    0.00   397.5 11766.9   21.58 11745.3 11742.3    3.00
 1989 236   137       0    3977  117976     459  117516  117432    84.6    0.00   397.5 11766.3   21.62 11744.6 11741.6    3.00
 1989 237   138       0    3977  117971     461  117510  117425    84.7    0.00   397.5 11765.6   21.67 11744.0 11741.0    3.00
 1989 238   139       0    3977  117966     462  117504  117419    84.8    0.00   397.4 11765.0   21.71 11743.3 11740.3    3.01
 1989 239   140       0    3977  117961     463  117498  117413    85.0    0.00   397.4 11764.4   21.75 11742.6 11739.6    3.01
 1989 240   141       0    3977  117956     464  117492  117406    85.6    0.00   397.4 11763.8   21.79 11742.0 11739.0    3.02
 1989 241   142       0    3977  117951     465  117486  117400    86.3    0.00   397.4 11763.1   21.82 11741.3 11738.3    3.04
 1989 242   143       0    3976  117946     466  117480  117393    87.1    0.00   397.4 11762.5   21.85 11740.7 11737.6    3.05
 1989 243   144       0    3976  117942     467  117475  117387    88.3    0.00   397.4 11761.9   21.88 11740.0 11736.9    3.08
 1989 244   145       0    3976  117937     468  117470  117380    89.5    0.00   397.3 11761.3   21.92 11739.4 11736.3    3.11
 1989 245   146       0    3976  117933     468  117464  117373    90.8    0.00   397.3 11760.6   21.95 11738.7 11735.6    3.13
 1989 246   147       0    3976  117928     469  117459  117367    92.2    0.00   397.3 11760.0   21.98 11738.0 11734.9    3.16
 1989 247   148       0    3976  117923     470  117453  117360    93.0    0.00   397.3 11759.4   22.00 11737.4 11734.2    3.19
 1989 248   149       0    3976  117918     471  117447  117353    93.9    0.00   397.3 11758.7   22.03 11736.7 11733.5    3.21
 1989 249   150       0    3976  117913     471  117442  117347    94.9    0.00   397.3 11758.1   22.05 11736.1 11732.8    3.23
 1989 250   151       0    3975  117908     472  117437  117340    96.2    0.00   397.3 11757.5   22.07 11735.4 11732.2    3.26
 1989 251   152       0    3975  117904     472  117432  117334    97.8    0.00   397.2 11756.9   22.09 11734.8 11731.5    3.30
 1989 252   153       0    3975  117900     473  117427  117328    99.2    0.00   397.2 11756.3   22.11 11734.2 11730.8    3.33
 1989 253   154       0    3975  117895     473  117422  117321   100.4    0.00   397.2 11755.7   22.13 11733.6 11730.2    3.36
 1989 254   155       0    3975  117891     474  117417  117315   101.8    0.00   397.2 11755.1   22.14 11733.0 11729.6    3.39
 1989 255   156       0    3975  117894     481  117413  117309   103.4    0.00   397.2 11754.8   22.38 11732.4 11729.0    3.43
 1989 256   157       0    3975  117897     488  117409  117304   105.1    0.00   397.2 11754.5   22.62 11731.9 11728.4    3.47
 1989 257   158       0    3975  117900     495  117405  117298   107.0    0.00   397.2 11754.2   22.85 11731.4 11727.8    3.51
 1989 258   159       0    3975  117904     502  117402  117293   109.0    0.00   397.2 11753.9   23.08 11730.8 11727.3    3.55
 1989 259   160       0    3975  117907     509  117399  117287   111.2    0.00   397.2 11753.6   23.30 11730.3 11726.7    3.60
 1989 260   161       0    3975  117911     515  117396  117282   113.9    0.00   397.2 11753.4   23.52 11729.8 11726.2    3.66
 1989 261   162       0    3975  117915     522  117393  117276   116.8    0.00   397.2 11753.1   23.74 11729.4 11725.6    3.72
 1989 262   163       0    3974  117919     528  117391  117271   119.6    0.00   397.1 11752.8   23.96 11728.9 11725.1    3.79
 1989 263   164       0    3974  117922     534  117388  117266   122.4    0.00   397.1 11752.5   24.17 11728.4 11724.5    3.85
